
<edges>

    <edge id="street1" from="1" to="2" numLanes="2" speed="30"/>
    <edge id="street2" from="2" to="3" numLanes="2" speed="30"/>
    
</edges>
