<connections>
    <connection from="EC" to="CW" fromLane="0" toLane="0" />
    <connection from="EC" to="CN" fromLane="0" toLane="0" />
    <connection from="EC" to="CW" fromLane="1" toLane="1" />
    <connection from="EC" to="CS" fromLane="2" toLane="2" />

    <connection from="WC" to="CS" fromLane="0" toLane="0" />
    <connection from="WC" to="CE" fromLane="0" toLane="0" />
    <connection from="WC" to="CE" fromLane="1" toLane="1" />
    <connection from="WC" to="CN" fromLane="2" toLane="2" />

    <connection from="NC" to="CW" fromLane="0" toLane="0" />
    <connection from="NC" to="CS" fromLane="0" toLane="0" />
    <connection from="NC" to="CS" fromLane="1" toLane="1" />
    <connection from="NC" to="CE" fromLane="2" toLane="2" />

    <connection from="SC" to="CE" fromLane="0" toLane="0" />
    <connection from="SC" to="CN" fromLane="0" toLane="0" />
    <connection from="SC" to="CN" fromLane="1" toLane="1" />
    <connection from="SC" to="CW" fromLane="2" toLane="2" />
</connections>

