<nodes>
    <node id="s" x="-100" y="-100" />
    <node id="00" x="0" y="0" />
    <node id="01" x="0" y="300" />
    <node id="02" x="0" y="600" />
    <node id="10" x="300" y="0" />
    <node id="11" x="300" y="300" type="traffic_light" />
    <node id="12" x="300" y="600" />
    <node id="20" x="600" y="0" />
    <node id="21" x="600" y="300" />
    <node id="22" x="600" y="600" />
    <node id="e" x="700" y="700" />
</nodes>
