<?xml version="1.0" encoding="UTF-8"?>

<routes>

  <vType id="passenger" length="5.0" minGap="2.0" maxSpeed="30.0" vClass="passenger">
      <carFollowing-Krauss accel="3.0" decel="5.0" sigma="0" tau="1.64" />
  </vType>    
  
    <!-- bicycle -->
  <vType id="bicycle" length="1.6" width="0.6" minGap="0.5" maxSpeed="4.2" vClass="bicycle" guiShape="bicycle">
  </vType>

  <!-- pedestrian -->
  <vType id="pedestrian" length="0.3" width="0.6" minGap="1.5" maxSpeed="1.4" vClass="pedestrian" guiShape="pedestrian" color="red">
  </vType>

  <route id="WtoE" edges="WC CE" />     
  <route id="EtoW" edges="EC CW" />    

  <flow id="route1" begin="10" end="1000" vehsPerHour="500" type="passenger" route="WtoE" />
  <flow id="route2" begin="10" end="1000" vehsPerHour="500" type="passenger" route="EtoW" />

  <person id="ped1" type="pedestrian" depart="10">
      <walk from="NC" to="CS" />
  </person>
  
    <person id="ped1a" type="pedestrian" depart="10">
      <walk from="NC" to="CS" />
  </person>
  
    <person id="ped1b" type="pedestrian" depart="10">
      <walk from="NC" to="CS" />
  </person>
  
    <person id="ped1c" type="pedestrian" depart="10">
      <walk from="NC" to="CS" />
  </person>
  
    <person id="ped2" type="pedestrian" depart="11">
      <walk from="NC" to="CS" />
  </person>
  
    <person id="ped3" type="pedestrian" depart="12">
      <walk from="NC" to="CS" />
  </person>
  
    <person id="ped4" type="pedestrian" depart="13">
      <walk from="NC" to="CS" />
  </person>
  
    <person id="ped5" type="pedestrian" depart="14">
      <walk from="NC" to="CS" />
  </person>
  
    <person id="ped6" type="pedestrian" depart="15">
      <walk from="NC" to="CS" />
  </person> 

</routes>
