<?xml version="1.0" encoding="UTF-8"?>

<!-- generated on Sat Nov 28 15:34:34 2015 by SUMO netconvert Version dev-SVN-r19089D
<?xml version="1.0" encoding="UTF-8"?>

<configuration xmlns:xsi="http://www.w3.org/2001/XMLSchema-instance" xsi:noNamespaceSchemaLocation="http://sumo.dlr.de/xsd/netconvertConfiguration.xsd">

    <input>
        <sumo-net-file value="pedcrossing.net.xml"/>
    </input>

    <output>
        <plain-output-prefix value="plain"/>
    </output>

    <processing>
        <no-turnarounds value="true"/>
        <offset.disable-normalization value="true"/>
    </processing>

</configuration>
-->

<connections version="0.13" xmlns:xsi="http://www.w3.org/2001/XMLSchema-instance" xsi:noNamespaceSchemaLocation="http://sumo.dlr.de/xsd/connections_file.xsd">
    <connection from="EC" to="CW" fromLane="0" toLane="0"/>
    <connection from="EC" to="CW" fromLane="2" toLane="2"/>
    <connection from="EC" to="CW" fromLane="3" toLane="3"/>
    <connection from="EC" to="CW" fromLane="4" toLane="4"/>

    <connection from="WC" to="CE" fromLane="0" toLane="0"/>
    <connection from="WC" to="CE" fromLane="2" toLane="2"/>
    <connection from="WC" to="CE" fromLane="3" toLane="3"/>
    <connection from="WC" to="CE" fromLane="4" toLane="4"/>

    <crossing node="C" edges="CE EC" priority="1" width="6.00"/>
</connections>
