
<edges>

    <edge id="EC" from="E" to="C" priority="2" numLanes="4" speed="30">
        <lane index="0" allow="pedestrian" width="3"/>
        <lane index="1" disallow="all" width="1.50"/>
        <lane index="2" disallow="pedestrian"/>
        <lane index="3" disallow="pedestrian"/>
    </edge>

    <edge id="CW" from="C" to="W" priority="2" numLanes="4" speed="30">
        <lane index="0" allow="pedestrian" width="3"/>
        <lane index="1" disallow="all" width="1.50"/>
        <lane index="2" disallow="pedestrian"/>
        <lane index="3" disallow="pedestrian"/>
    </edge>

    <edge id="WC" from="W" to="C" priority="2" numLanes="4" speed="30">
        <lane index="0" allow="pedestrian" width="3"/>
        <lane index="1" disallow="all" width="1.50"/>
        <lane index="2" disallow="pedestrian"/>
        <lane index="3" disallow="pedestrian"/>
    </edge>

    <edge id="CE" from="C" to="E" priority="2" numLanes="4" speed="30">
        <lane index="0" allow="pedestrian" width="3"/>
        <lane index="1" disallow="all" width="1.50"/>
        <lane index="2" disallow="pedestrian" />
        <lane index="3" disallow="pedestrian"/>
    </edge>

    <edge id="NC" from="N" to="C" priority="1" numLanes="1" speed="5.00" spreadType="center" width="3.00" allow="pedestrian"/>
    <edge id="CS" from="C" to="S" priority="1" numLanes="1" speed="5.00" spreadType="center" width="3.00" allow="pedestrian"/>
    
</edges>
