<?xml version="1.0" encoding="UTF-8"?>

<nodes>

  <node id="1" x="-500.0" y="0.0" />
  <node id="2" x="0" y="0.0" />
  <node id="3" x="+500.0" y="0.0" />

</nodes>
