<?xml version="1.0" encoding="UTF-8"?>

<edges>

  <edge id="1to2" from="1" to="2" numLanes="2" speed="30" />
  <edge id="2to3" from="2" to="3" numLanes="2" speed="30" />

</edges>
