<?xml version="1.0" encoding="UTF-8"?>

<!-- generated on Sun May 28 03:47:14 2017 by SUMO netconvert Version dev-SVN-r22948
<?xml version="1.0" encoding="UTF-8"?>

<configuration xmlns:xsi="http://www.w3.org/2001/XMLSchema-instance" xsi:noNamespaceSchemaLocation="http://sumo.dlr.de/xsd/netconvertConfiguration.xsd">

    <input>
        <node-files value="1hello.nod.xml"/>
        <edge-files value="2hello.edg.xml"/>
    </input>

    <output>
        <output-file value="3hello.net.xml"/>
    </output>

    <processing>
        <no-internal-links value="true"/>
    </processing>

</configuration>
-->

<net version="0.27" xmlns:xsi="http://www.w3.org/2001/XMLSchema-instance" xsi:noNamespaceSchemaLocation="http://sumo.dlr.de/xsd/net_file.xsd">

    <location netOffset="500.00,0.00" convBoundary="0.00,0.00,1000.00,0.00" origBoundary="-500.00,0.00,500.00,0.00" projParameter="!"/>

    <edge id="1to2" from="1" to="2" priority="-1">
        <lane id="1to2_0" index="0" speed="30.00" length="500.00" shape="0.00,-4.95 500.00,-4.95"/>
        <lane id="1to2_1" index="1" speed="30.00" length="500.00" shape="0.00,-1.65 500.00,-1.65"/>
    </edge>
    <edge id="2to3" from="2" to="3" priority="-1">
        <lane id="2to3_0" index="0" speed="30.00" length="500.00" shape="500.00,-4.95 1000.00,-4.95"/>
        <lane id="2to3_1" index="1" speed="30.00" length="500.00" shape="500.00,-1.65 1000.00,-1.65"/>
    </edge>

    <junction id="1" type="unregulated" x="0.00" y="0.00" incLanes="" intLanes="" shape="0.00,-0.05 0.00,-6.55"/>
    <junction id="2" type="priority" x="500.00" y="0.00" incLanes="1to2_0 1to2_1" intLanes="" shape="500.00,-0.05 500.00,-6.55 500.00,-0.05">
        <request index="0" response="00" foes="00"/>
        <request index="1" response="00" foes="00"/>
    </junction>
    <junction id="3" type="unregulated" x="1000.00" y="0.00" incLanes="2to3_0 2to3_1" intLanes="" shape="1000.00,-6.55 1000.00,-0.05"/>

    <connection from="1to2" to="2to3" fromLane="0" toLane="0" dir="s" state="M"/>
    <connection from="1to2" to="2to3" fromLane="1" toLane="1" dir="s" state="M"/>

</net>
