
<connections>

    <connection from="CE" to="EC" fromLane="4" toLane="4" />

    <connection from="CS" to="SC" fromLane="4" toLane="4" />

    <connection from="EC" to="CN" fromLane="2" toLane="2" />
    <connection from="EC" to="CW" fromLane="2" toLane="2" />
    <connection from="EC" to="CN" fromLane="3" toLane="3" />
    <connection from="EC" to="CW" fromLane="3" toLane="3" />
    <connection from="EC" to="CS" fromLane="4" toLane="4" />

    <connection from="NC" to="CW" fromLane="2" toLane="2" />
    <connection from="NC" to="CS" fromLane="2" toLane="2" />
    <connection from="NC" to="CW" fromLane="3" toLane="3" />
    <connection from="NC" to="CS" fromLane="3" toLane="3" />
    <connection from="NC" to="CE" fromLane="4" toLane="4" />

    <connection from="SC" to="CE" fromLane="2" toLane="2" />
    <connection from="SC" to="CN" fromLane="2" toLane="2" />
    <connection from="SC" to="CE" fromLane="3" toLane="3" />
    <connection from="SC" to="CN" fromLane="3" toLane="3" />
    <connection from="SC" to="CW" fromLane="4" toLane="4" />

    <connection from="WC" to="CS" fromLane="2" toLane="2" />
    <connection from="WC" to="CE" fromLane="2" toLane="2" />
    <connection from="WC" to="CS" fromLane="3" toLane="3" />
    <connection from="WC" to="CE" fromLane="3" toLane="3" />
    <connection from="WC" to="CN" fromLane="4" toLane="4" />

    <crossing node="C" edges="CN NC" priority="1" />
    <crossing node="C" edges="CE EC" priority="1" />
    <crossing node="C" edges="CS SC" priority="1" />
    <crossing node="C" edges="CW WC" priority="1" />

</connections>
