<?xml version="1.0" encoding="UTF-8"?>
<nodes xmlns:xsi="http://www.w3.org/2001/XMLSchema-instance">

  <node id="1" x="0.0" y="+400.0" />
  <node id="2" x="-400.0" y="0.0" />
  <node id="3" x="0.0" y="0.0" type="traffic_light" />
  <node id="4" x="+400.0" y="0.0" />
  <node id="5" x="0.0" y="-400.0" />

</nodes>