<?xml version="1.0" encoding="UTF-8"?>

<!-- generated on Wed Oct 29 14:46:58 2014 by SUMO netconvert Version svnD
<?xml version="1.0" encoding="UTF-8"?>

<configuration xmlns:xsi="http://www.w3.org/2001/XMLSchema-instance" xsi:noNamespaceSchemaLocation="http://sumo-sim.org/xsd/netconvertConfiguration.xsd">

    <input>
        <node-files value="1hello.nod.xml"/>
        <edge-files value="2hello.edg.xml"/>
    </input>

    <output>
        <output-file value="3hello.net.xml"/>
    </output>

    <processing>
        <no-internal-links value="true"/>
    </processing>

</configuration>
-->

<net version="0.13" xmlns:xsi="http://www.w3.org/2001/XMLSchema-instance" xsi:noNamespaceSchemaLocation="http://sumo-sim.org/xsd/net_file.xsd">

    <location netOffset="16000.00,16000.00" convBoundary="0.00,0.00,32000.00,32000.00" origBoundary="-16000.00,-16000.00,16000.00,16000.00" projParameter="!"/>

    <edge id="1to3" from="1" to="3" priority="-1">
        <lane id="1to3_0" index="0" allow="pedestrian" speed="13.90" length="16000.00" width="1.00" shape="15995.05,32000.00 15995.05,16002.55"/>
        <lane id="1to3_1" index="1" disallow="pedestrian" speed="30.00" length="16000.00" shape="15997.25,32000.00 15997.25,16002.55"/>
        <lane id="1to3_2" index="2" allow="pedestrian" speed="13.90" length="16000.00" width="1.00" shape="15999.45,32000.00 15999.45,16002.55"/>
    </edge>
    <edge id="2to3" from="2" to="3" priority="-1">
        <lane id="2to3_0" index="0" allow="pedestrian" speed="13.90" length="16000.00" width="1.00" shape="0.00,15995.05 15991.95,15995.05"/>
        <lane id="2to3_1" index="1" disallow="pedestrian" speed="30.00" length="16000.00" shape="0.00,15997.25 15991.95,15997.25"/>
        <lane id="2to3_2" index="2" allow="pedestrian" speed="13.90" length="16000.00" width="1.00" shape="0.00,15999.45 15991.95,15999.45"/>
    </edge>
    <edge id="3to4" from="3" to="4" priority="-1">
        <lane id="3to4_0" index="0" allow="pedestrian" speed="13.90" length="16000.00" width="1.00" shape="16002.55,15995.05 32000.00,15995.05"/>
        <lane id="3to4_1" index="1" disallow="pedestrian" speed="30.00" length="16000.00" shape="16002.55,15997.25 32000.00,15997.25"/>
        <lane id="3to4_2" index="2" allow="pedestrian" speed="13.90" length="16000.00" width="1.00" shape="16002.55,15999.45 32000.00,15999.45"/>
    </edge>
    <edge id="3to5" from="3" to="5" priority="-1">
        <lane id="3to5_0" index="0" allow="pedestrian" speed="13.90" length="16000.00" width="1.00" shape="15995.05,15991.95 15995.05,0.00"/>
        <lane id="3to5_1" index="1" disallow="pedestrian" speed="30.00" length="16000.00" shape="15997.25,15991.95 15997.25,0.00"/>
        <lane id="3to5_2" index="2" allow="pedestrian" speed="13.90" length="16000.00" width="1.00" shape="15999.45,15991.95 15999.45,0.00"/>
    </edge>

    <junction id="1" type="unregulated" x="16000.00" y="32000.00" incLanes="" intLanes="" shape="16001.05,32000.00 15993.45,32000.00"/>
    <junction id="2" type="unregulated" x="0.00" y="16000.00" incLanes="" intLanes="" shape="0.00,16001.05 -0.00,15993.45"/>
    <junction id="3" type="allway_stop" x="16000.00" y="16000.00" incLanes="1to3_0 1to3_1 1to3_2 2to3_0 2to3_1 2to3_2" intLanes="" shape="15993.45,16002.55 16001.05,16002.55 16002.55,16001.05 16002.55,15993.45 16001.05,15991.95 15993.45,15991.95 15991.95,15993.45 15991.95,16001.05">
        <request index="0" response="1100000" foes="1100000"/>
        <request index="1" response="1100000" foes="1100000"/>
        <request index="2" response="1100000" foes="1100000"/>
        <request index="3" response="1100000" foes="1100000"/>
        <request index="4" response="0000000" foes="0000000"/>
        <request index="5" response="0001111" foes="0001111"/>
        <request index="6" response="0001111" foes="0001111"/>
    </junction>
    <junction id="4" type="unregulated" x="32000.00" y="16000.00" incLanes="3to4_0 3to4_1 3to4_2" intLanes="" shape="32000.00,15993.45 32000.00,16001.05"/>
    <junction id="5" type="unregulated" x="16000.00" y="0.00" incLanes="3to5_0 3to5_1 3to5_2" intLanes="" shape="15993.45,0.00 16001.05,-0.00"/>

    <connection from="1to3" to="3to5" fromLane="0" toLane="1" dir="s" state="w"/>
    <connection from="1to3" to="3to5" fromLane="1" toLane="2" dir="s" state="w"/>
    <connection from="1to3" to="3to4" fromLane="2" toLane="1" dir="l" state="w"/>
    <connection from="1to3" to="3to4" fromLane="2" toLane="2" dir="l" state="w"/>
    <connection from="2to3" to="3to5" fromLane="0" toLane="0" dir="r" state="w"/>
    <connection from="2to3" to="3to4" fromLane="1" toLane="0" dir="s" state="w"/>
    <connection from="2to3" to="3to4" fromLane="2" toLane="1" dir="s" state="w"/>

</net>
