<?xml version="1.0" encoding="UTF-8"?>


<connections >


    <connection from="1to3" to="3to5" fromLane="1" toLane="1" dir="s" state="w"/>
    <connection from="2to3" to="3to4" fromLane="1" toLane="1" dir="s" state="w"/>
       


</connections>
