<?xml version="1.0" encoding="UTF-8"?>


<connections >

    <connection from="1to3" to="3to4" fromLane="1" toLane="1" />
    <connection from="1to3" to="3to5" fromLane="1" toLane="1" />
    <connection from="2to3" to="3to4" fromLane="1" toLane="1" />
    <connection from="2to3" to="3to5" fromLane="1" toLane="1" />

    <connection from="1to3" to="3to4" fromLane="0" toLane="0" />
    <connection from="1to3" to="3to5" fromLane="0" toLane="0" />
    <connection from="2to3" to="3to4" fromLane="0" toLane="0" />
    <connection from="2to3" to="3to5" fromLane="0" toLane="0" />
    <connection from="1to3" to="3to4" fromLane="2" toLane="2" />
    <connection from="1to3" to="3to5" fromLane="2" toLane="2" />
    <connection from="2to3" to="3to4" fromLane="2" toLane="2" />
    <connection from="2to3" to="3to5" fromLane="2" toLane="2" />        


</connections>
