<?xml version="1.0" encoding="UTF-8"?>

<!-- generated on Wed Nov  5 16:29:03 2014 by SUMO netconvert Version svnD
<?xml version="1.0" encoding="UTF-8"?>

<configuration xmlns:xsi="http://www.w3.org/2001/XMLSchema-instance" xsi:noNamespaceSchemaLocation="http://sumo-sim.org/xsd/netconvertConfiguration.xsd">

    <input>
        <node-files value="1hello.nod.xml"/>
        <edge-files value="2hello.edg.xml"/>
        <connection-files value="3hello.con.xml"/>
    </input>

    <output>
        <output-file value="3hello.net.xml"/>
    </output>

    <processing>
        <no-internal-links value="true"/>
    </processing>

</configuration>
-->

<net version="0.13" xmlns:xsi="http://www.w3.org/2001/XMLSchema-instance" xsi:noNamespaceSchemaLocation="http://sumo-sim.org/xsd/net_file.xsd">

    <location netOffset="500.00,500.00" convBoundary="0.00,0.00,1000.00,1000.00" origBoundary="-500.00,-500.00,500.00,500.00" projParameter="!"/>

    <edge id="1to3" from="1" to="3" priority="-1">
        <lane id="1to3_0" index="0" allow="pedestrian" speed="13.90" length="500.00" width="1.00" shape="495.05,1000.00 495.05,502.55"/>
        <lane id="1to3_1" index="1" disallow="pedestrian" speed="30.00" length="500.00" shape="497.25,1000.00 497.25,502.55"/>
        <lane id="1to3_2" index="2" allow="pedestrian" speed="13.90" length="500.00" width="1.00" shape="499.45,1000.00 499.45,502.55"/>
    </edge>
    <edge id="2to3" from="2" to="3" priority="-1">
        <lane id="2to3_0" index="0" allow="pedestrian" speed="13.90" length="500.00" width="1.00" shape="0.00,495.05 491.95,495.05"/>
        <lane id="2to3_1" index="1" disallow="pedestrian" speed="30.00" length="500.00" shape="0.00,497.25 491.95,497.25"/>
        <lane id="2to3_2" index="2" allow="pedestrian" speed="13.90" length="500.00" width="1.00" shape="0.00,499.45 491.95,499.45"/>
    </edge>
    <edge id="3to4" from="3" to="4" priority="-1">
        <lane id="3to4_0" index="0" allow="pedestrian" speed="13.90" length="500.00" width="1.00" shape="502.55,495.05 1000.00,495.05"/>
        <lane id="3to4_1" index="1" disallow="pedestrian" speed="30.00" length="500.00" shape="502.55,497.25 1000.00,497.25"/>
        <lane id="3to4_2" index="2" allow="pedestrian" speed="13.90" length="500.00" width="1.00" shape="502.55,499.45 1000.00,499.45"/>
    </edge>
    <edge id="3to5" from="3" to="5" priority="-1">
        <lane id="3to5_0" index="0" allow="pedestrian" speed="13.90" length="500.00" width="1.00" shape="495.05,491.95 495.05,0.00"/>
        <lane id="3to5_1" index="1" disallow="pedestrian" speed="30.00" length="500.00" shape="497.25,491.95 497.25,0.00"/>
        <lane id="3to5_2" index="2" allow="pedestrian" speed="13.90" length="500.00" width="1.00" shape="499.45,491.95 499.45,0.00"/>
    </edge>

    <junction id="1" type="unregulated" x="500.00" y="1000.00" incLanes="" intLanes="" shape="501.05,1000.00 493.45,1000.00"/>
    <junction id="2" type="unregulated" x="0.00" y="500.00" incLanes="" intLanes="" shape="0.00,501.05 -0.00,493.45"/>
    <junction id="3" type="allway_stop" x="500.00" y="500.00" incLanes="1to3_0 1to3_1 1to3_2 2to3_0 2to3_1 2to3_2" intLanes="" shape="493.45,502.55 501.05,502.55 502.55,501.05 502.55,493.45 501.05,491.95 493.45,491.95 491.95,493.45 491.95,501.05">
        <request index="0" response="10" foes="10"/>
        <request index="1" response="01" foes="01"/>
    </junction>
    <junction id="4" type="unregulated" x="1000.00" y="500.00" incLanes="3to4_0 3to4_1 3to4_2" intLanes="" shape="1000.00,493.45 1000.00,501.05"/>
    <junction id="5" type="unregulated" x="500.00" y="0.00" incLanes="3to5_0 3to5_1 3to5_2" intLanes="" shape="493.45,0.00 501.05,-0.00"/>

    <connection from="1to3" to="3to5" fromLane="1" toLane="1" dir="s" state="w"/>
    <connection from="2to3" to="3to4" fromLane="1" toLane="1" dir="s" state="w"/>

</net>
