<?xml version="1.0" encoding="UTF-8"?>
<routes>

  <!-- ACC vehicle -->
  <vType id="TypeACC" length="5.0" minGap="2.0" maxSpeed="30.0" vClass="private">
      <carFollowing-ACC MaxAccel="3.0" MaxDecel="5.0" T_g="1.2" tau="0.5" ComfAccel="2.0" ComfDecel="3.0" K_sc="0.4" K_v="1.0" K_g="5.0" V_int="30.0" />
  </vType>  

  <!-- CACC vehicle -->
  <vType id="TypeCACC" length="5.0" minGap="2.0" maxSpeed="30.0" vClass="private" impatience="0.0">
      <carFollowing-CACC MaxAccel="3.0" MaxDecel="5.0" T_g="0.55" tau="0.4" ComfAccel="2.0" ComfDecel="3.0" K_sc="0.4" K_v="0.99" K_g="4.08" K_a="0.66" V_int="30.0" />
  </vType>
  
  <!-- Pedestrian -->
  <vType id="Pedestrian" vClass="pedestrian">
  </vType>

  <route id="route1" edges="2to3 3to4" />  
  <route id="route2" edges="2to3 3to5" />  
  <route id="route3" edges="1to3 3to4" />  
  <route id="route4" edges="1to3 3to5" />  

</routes>
