<?xml version="1.0" encoding="UTF-8"?>

<!-- generated on Mon Sep  9 21:49:59 2013 by SUMO netconvert Version 0.17.1
<?xml version="1.0" encoding="UTF-8"?>

<configuration xmlns:xsi="http://www.w3.org/2001/XMLSchema-instance" xsi:noNamespaceSchemaLocation="http://sumo.sf.net/xsd/netconvertConfiguration.xsd">

    <input>
        <node-files value="hello.nod.xml"/>
        <edge-files value="hello.edg.xml"/>
    </input>

    <output>
        <output-file value="hello.net.xml"/>
    </output>

    <processing>
        <no-internal-links value="true"/>
    </processing>

</configuration>
-->

<net version="0.13" xmlns:xsi="http://www.w3.org/2001/XMLSchema-instance" xsi:noNamespaceSchemaLocation="http://sumo.sf.net/xsd/net_file.xsd">

    <location netOffset="1000.00,0.00" convBoundary="0.00,0.00,3000.00,1000.00" origBoundary="-1000.00,0.00,2000.00,1000.00" projParameter="!"/>

    <edge id="1to2" from="1" to="2" priority="-1">
        <lane id="1to2_0" index="0" speed="28.00" length="2000.00" shape="0.00,-1.65 2000.00,-1.65"/>
    </edge>
    <edge id="2to3" from="2" to="3" priority="-1">
        <lane id="2to3_0" index="0" speed="5.00" length="498.55" shape="2000.00,-1.65 2498.55,-1.65"/>
    </edge>
    <edge id="3to4" from="3" to="4" priority="-1">
        <lane id="3to4_0" index="0" speed="28.00" length="498.55" shape="2501.65,1.45 2501.65,500.00"/>
    </edge>
    <edge id="3to5" from="3" to="5" priority="-1">
        <lane id="3to5_0" index="0" speed="28.00" length="495.25" shape="2504.75,-1.65 3000.00,-1.65"/>
    </edge>
    <edge id="4to6" from="4" to="6" priority="-1">
        <lane id="4to6_0" index="0" speed="28.00" length="500.00" shape="2501.65,500.00 2501.65,1000.00"/>
    </edge>

    <tlLogic id="3" type="static" programID="0" offset="0">
        <phase duration="31" state="GG"/>
        <phase duration="4" state="yy"/>
    </tlLogic>

    <junction id="1" type="unregulated" x="0.00" y="0.00" incLanes="" intLanes="" shape="-0.00,-0.05 -0.00,-3.25"/>
    <junction id="2" type="priority" x="2000.00" y="0.00" incLanes="1to2_0" intLanes="" shape="2000.00,-0.05 2000.00,-3.25 2000.00,-0.05">
        <request index="0" response="0" foes="0"/>
    </junction>
    <junction id="3" type="traffic_light" x="2500.00" y="0.00" incLanes="2to3_0" intLanes="" shape="2500.05,1.45 2503.25,1.45 2504.75,-0.05 2504.75,-3.25 2498.55,-3.25 2498.55,-0.05">
        <request index="0" response="00" foes="00"/>
        <request index="1" response="00" foes="00"/>
    </junction>
    <junction id="4" type="priority" x="2500.00" y="500.00" incLanes="3to4_0" intLanes="" shape="2500.05,500.00 2503.25,500.00 2500.05,500.00">
        <request index="0" response="0" foes="0"/>
    </junction>
    <junction id="5" type="unregulated" x="3000.00" y="0.00" incLanes="3to5_0" intLanes="" shape="3000.00,-3.25 3000.00,-0.05"/>
    <junction id="6" type="unregulated" x="2500.00" y="1000.00" incLanes="4to6_0" intLanes="" shape="2503.25,1000.00 2500.05,1000.00"/>

    <connection from="1to2" to="2to3" fromLane="0" toLane="0" dir="s" state="M"/>
    <connection from="2to3" to="3to5" fromLane="0" toLane="0" tl="3" linkIndex="0" dir="s" state="o"/>
    <connection from="2to3" to="3to4" fromLane="0" toLane="0" tl="3" linkIndex="1" dir="l" state="o"/>
    <connection from="3to4" to="4to6" fromLane="0" toLane="0" dir="s" state="M"/>

</net>
