<?xml version="1.0" encoding="UTF-8"?>
<routes xmlns:xsi="http://www.w3.org/2001/XMLSchema-instance" xsi:noNamespaceSchemaLocation="http://sumo.sf.net/xsd/routes_file.xsd">

  <vType id="TypeManual" length="5.0" minGap="2" maxSpeed="28.0" >
      <carFollowing-OptimalSpeed accel="2.0" decel="5.0" sigma="0" tau="1.64" sensitivity="1.21" DesTimeGap="1.64" />
  </vType>

  <vType id="TypeACC" length="5.0" minGap="2" maxSpeed="28.0" >
      <carFollowing-OptimalSpeed accel="2.0" decel="5.0" sigma="0" tau="1" sensitivity="2" DesTimeGap="1.4" />
  </vType>

  <vType id="TypeCACC" length="5.0" minGap="2" maxSpeed="28.0" >
      <carFollowing-OptimalSpeed accel="2.0" decel="5.0" sigma="0" tau="0.5" sensitivity="4" DesTimeGap="0.7" />
  </vType>

  <route id="route1" edges="1to2 2to3 3to4 4to6" />

  <vehicle id="Manual" type="TypeManual" route="route1" depart="1" />
  <vehicle id="ACC" type="TypeACC" route="route1" depart="5" />
  <vehicle id="CACC" type="TypeCACC" route="route1" depart="10" />

</routes>
