<?xml version="1.0" encoding="UTF-8"?>
<routes>
 
  <!-- Manual driving vehicle -Krauss Model (tau here is T_g and not controller delay!) -->
  <vType id="TypeManual" length="5.0" minGap="2.0" maxSpeed="30.0" vClass="passenger">
      <carFollowing-Krauss accel="3.0" decel="5.0" sigma="0" tau="1.64" />
  </vType>  

  <!-- Manual driving vehicle -external redpine board -->
  <vType id="TypeHIL" length="5.0" minGap="2.0" maxSpeed="30.0" vClass="passenger">
      <carFollowing-Krauss accel="3.0" decel="5.0" sigma="0" tau="1.64" />
  </vType>  

  <route id="route1" edges="1to2" />  

</routes>
