<?xml version="1.0" encoding="UTF-8"?>

<!-- generated on Wed Jun 22 14:05:47 2016 by SUMO polyconvert Version svn
<?xml version="1.0" encoding="UTF-8"?>

<configuration xmlns:xsi="http://www.w3.org/2001/XMLSchema-instance" xsi:noNamespaceSchemaLocation="http://sumo.dlr.de/xsd/polyconvertConfiguration.xsd">

    <input>
        <net-file value="map.net.xml"/>
        <osm-files value="map.osm"/>
    </input>

    <output>
        <output-file value="map.poly.xml"/>
    </output>

    <processing>
        <poi-layer-offset value="5"/>
    </processing>

</configuration>
-->

<additional xmlns:xsi="http://www.w3.org/2001/XMLSchema-instance" xsi:noNamespaceSchemaLocation="http://sumo.dlr.de/xsd/additional_file.xsd">
    <location netOffset="-590496.85,-4134311.85" convBoundary="-2194.19,-3149.20,10010.77,9030.53" origBoundary="-122.003351,37.322920,-121.864699,37.431851" projParameter="+proj=utm +zone=10 +ellps=WGS84 +datum=WGS84 +units=m +no_defs"/>

    <poly id="109696312" type="aeroway" color="grey" fill="0" layer="-2.00" shape="3734.84,2483.58 3727.96,2482.67 3721.45,2480.35 3715.56,2476.14 3689.99,2453.25 3610.07,2381.78 3451.22,2239.50 3360.27,2158.06 3352.18,2150.18 3345.12,2142.05 3338.18,2132.49 3331.65,2122.19 3325.92,2111.43 3320.24,2099.48 3316.53,2087.94 3313.56,2075.94 3311.44,2064.21 3310.37,2052.73 3310.06,2040.90 3310.51,2027.66"/>
    <poly id="109696313" type="aeroway" color="grey" fill="0" layer="-2.00" shape="5667.83,319.43 5668.03,327.51 5666.72,335.34 5664.19,342.92 5660.25,349.94 5654.78,356.89 5619.86,395.89 5583.55,436.44 5532.47,493.47 5232.18,828.84 5038.47,1045.38 4879.24,1223.03 4720.82,1399.98 4540.99,1600.86 4350.28,1813.90 4129.83,2060.16 3964.89,2244.42 3760.91,2472.31 3755.45,2477.42 3749.23,2480.90 3742.92,2482.96 3734.84,2483.58"/>
    <poly id="109696315" type="aeroway" color="grey" fill="0" layer="-2.00" shape="3310.51,2027.66 3311.30,2015.76 3313.60,2002.76 3316.80,1989.92 3321.19,1977.39 3326.67,1964.67 3333.51,1951.99 3341.72,1939.21 3351.25,1927.38 3617.64,1629.13 4042.43,1153.59 4205.38,971.17 4211.73,964.37 4217.25,959.24 4221.42,955.89 4233.20,946.78 4238.50,941.67 4545.04,598.45 4586.56,551.96 4640.00,492.13 4715.10,408.05 4719.66,403.62 4725.22,399.78 4731.25,397.38 4737.48,396.33"/>
    <poly id="109696318" type="aeroway" color="grey" fill="0" layer="-2.00" shape="3428.83,2720.67 3420.55,2721.14 3412.70,2720.30 3405.94,2718.32 3399.74,2715.24 3393.68,2710.83 3348.99,2673.38 3187.56,2534.12"/>
    <poly id="109696319" type="aeroway" color="grey" fill="0" layer="-2.00" shape="3195.56,2361.53 3196.60,2369.49 3198.70,2376.13 3201.60,2382.40 3205.35,2388.02 3210.63,2393.54 3267.70,2444.57 3427.04,2586.20 3507.14,2657.51"/>
    <poly id="109696320" type="aeroway" color="grey" fill="0" layer="-2.00" shape="4540.99,1600.86 4492.22,1557.18"/>
    <poly id="122206686" type="building" color="255,230,230" fill="1" layer="-1.00" shape="3227.93,3182.67 3243.71,3146.23 3250.88,3149.32 3255.65,3138.30 3278.38,3148.06 3268.35,3171.21 3263.79,3169.24 3253.25,3193.55 3227.93,3182.67"/>
    <poly id="122206689" type="building" color="255,230,230" fill="1" layer="-1.00" shape="2986.11,3278.90 2995.13,3261.14 3084.37,3306.14 3095.47,3284.30 3112.99,3293.13 3092.87,3332.73 2986.11,3278.90"/>
    <poly id="122206692" type="building" color="255,230,230" fill="1" layer="-1.00" shape="3245.33,3127.21 3259.02,3095.76 3281.71,3105.56 3277.85,3114.42 3300.08,3124.02 3290.20,3146.73 3279.38,3142.06 3278.83,3143.31 3274.43,3141.41 3275.03,3140.04 3245.33,3127.21"/>
    <poly id="122206693" type="building" color="255,230,230" fill="1" layer="-1.00" shape="2898.67,3472.09 2913.57,3441.99 2910.93,3440.70 2914.79,3432.91 2919.95,3435.44 2936.82,3401.35 2968.70,3417.01 2965.79,3422.89 2979.74,3429.74 2967.32,3454.83 2954.41,3448.50 2932.33,3493.11 2930.69,3492.30 2930.02,3493.66 2898.42,3478.14 2900.87,3473.17 2898.67,3472.09"/>
    <poly id="122206694" type="parking" color="184,184,179" fill="1" layer="-1.00" shape="3125.73,3305.89 3099.32,3363.85 3092.79,3360.90 3119.21,3302.94 3125.73,3305.89"/>
    <poly id="122206696" type="parking" color="184,184,179" fill="1" layer="-1.00" shape="2973.93,3326.18 2976.88,3320.41 3087.30,3376.31 3084.34,3382.09 2973.93,3326.18"/>
    <poly id="122206698" type="building" color="255,230,230" fill="1" layer="-1.00" shape="3097.86,3241.36 3101.40,3234.14 3117.25,3202.93 3130.44,3209.46 3124.31,3221.73 3150.15,3234.52 3136.16,3262.53 3124.32,3256.67 3125.21,3254.90 3097.86,3241.36"/>
    <poly id="122206700" type="building" color="255,230,230" fill="1" layer="-1.00" shape="2976.46,3308.98 2985.44,3291.23 3089.76,3343.60 3080.78,3361.34 2976.46,3308.98"/>
    <poly id="122206702" type="building" color="255,230,230" fill="1" layer="-1.00" shape="3196.45,3235.51 3207.96,3209.77 3206.57,3209.15 3208.40,3205.08 3209.50,3205.57 3212.41,3199.04 3237.97,3210.37 3221.73,3246.71 3196.45,3235.51"/>
    <poly id="122206703" type="building" color="255,230,230" fill="1" layer="-1.00" shape="3179.35,3291.31 3185.63,3277.51 3178.75,3274.42 3193.90,3241.09 3218.77,3252.30 3207.21,3277.72 3211.90,3279.84 3202.03,3301.54 3179.35,3291.31"/>
    <poly id="122206704" type="parking" color="184,184,179" fill="1" layer="-1.00" shape="2993.98,3248.53 2996.96,3242.58 3086.51,3286.98 3083.53,3292.93 2993.98,3248.53"/>
    <poly id="122206705" type="building" color="255,230,230" fill="1" layer="-1.00" shape="3129.45,3403.26 3156.28,3349.84 3178.62,3360.97 3151.80,3414.39 3129.45,3403.26"/>
    <poly id="122210877" type="building" color="255,230,230" fill="1" layer="-1.00" shape="2940.06,3595.92 2978.74,3615.31 2989.90,3593.21 2951.22,3573.82 2940.06,3595.92"/>
    <poly id="122210878" type="building" color="255,230,230" fill="1" layer="-1.00" shape="2661.90,3351.93 2673.86,3330.43 2724.70,3358.47 2712.73,3379.99 2661.90,3351.93"/>
    <poly id="122210879" type="building" color="255,230,230" fill="1" layer="-1.00" shape="2651.79,3553.97 2685.52,3492.87 2682.81,3491.39 2687.20,3483.45 2673.91,3476.16 2669.43,3484.28 2666.60,3482.73 2632.97,3543.66 2651.79,3553.97"/>
    <poly id="122210880" type="building" color="255,230,230" fill="1" layer="-1.00" shape="2899.75,3372.92 2907.02,3358.10 2906.37,3357.79 2907.65,3355.18 2904.87,3353.83 2907.01,3349.47 2910.37,3351.10 2912.16,3347.47 2906.94,3344.94 2906.16,3346.56 2902.08,3344.57 2902.97,3342.76 2899.27,3340.96 2900.07,3339.31 2896.27,3337.46 2897.10,3335.75 2893.54,3334.03 2894.33,3332.42 2890.14,3330.37 2889.13,3332.46 2885.40,3330.64 2882.83,3335.89 2880.36,3334.70 2881.21,3332.96 2878.10,3331.45 2879.64,3328.32 2878.24,3327.64 2879.56,3324.95 2876.65,3323.54 2876.18,3324.48 2873.42,3323.14 2872.46,3325.09 2869.01,3323.41 2867.96,3325.56 2864.50,3323.88 2860.82,3331.37 2868.20,3334.97 2864.12,3343.28 2870.19,3346.24 2868.61,3349.46 2872.15,3351.19 2873.05,3349.34 2876.35,3350.94 2878.07,3347.47 2875.79,3346.37 2878.54,3340.75 2879.88,3341.41 2880.25,3340.64 2887.63,3344.22 2886.24,3347.05 2891.37,3349.55 2892.02,3348.21 2895.04,3349.69 2895.42,3348.92 2897.40,3349.88 2894.62,3355.54 2888.81,3352.70 2886.61,3357.21 2888.63,3358.19 2887.47,3360.59 2888.75,3361.21 2886.23,3366.34 2899.75,3372.92"/>
    <poly id="122210881" type="building" color="255,230,230" fill="1" layer="-1.00" shape="2628.39,3349.84 2648.80,3313.13 2623.45,3299.15 2607.42,3328.00 2616.04,3332.76 2611.67,3340.62 2628.39,3349.84"/>
    <poly id="122210882" type="building" color="255,230,230" fill="1" layer="-1.00" shape="2762.84,3549.67 2773.80,3529.76 2771.14,3519.76 2754.43,3510.58 2739.65,3537.30 2762.84,3549.67"/>
    <poly id="122210883" type="building" color="255,230,230" fill="1" layer="-1.00" shape="2897.26,3692.13 2905.50,3675.95 2939.40,3693.04 2927.79,3715.85 2902.58,3703.14 2905.94,3696.51 2897.26,3692.13"/>
    <poly id="122210884" type="building" color="255,230,230" fill="1" layer="-1.00" shape="2808.49,3593.80 2824.48,3565.07 2828.70,3567.40 2832.44,3560.69 2847.36,3568.93 2827.64,3604.36 2808.49,3593.80"/>
    <poly id="122210885" type="building" color="255,230,230" fill="1" layer="-1.00" shape="2990.71,3489.78 2999.98,3471.12 3030.10,3485.97 3020.81,3504.63 2990.71,3489.78"/>
    <poly id="122210886" type="building" color="255,230,230" fill="1" layer="-1.00" shape="2790.87,3562.43 2800.46,3544.53 2811.21,3541.44 2830.37,3551.97 2817.12,3576.71 2790.87,3562.43"/>
    <poly id="122210887" type="building" color="255,230,230" fill="1" layer="-1.00" shape="2560.17,3354.54 2568.29,3359.02 2572.97,3350.64 2614.86,3373.82 2596.40,3406.92 2546.39,3379.25 2560.17,3354.54"/>
    <poly id="122210888" type="building" color="255,230,230" fill="1" layer="-1.00" shape="2569.23,3252.17 2576.97,3237.28 2578.71,3236.44 2665.83,3282.22 2657.42,3298.50 2569.23,3252.17"/>
    <poly id="122210889" type="building" color="255,230,230" fill="1" layer="-1.00" shape="2738.11,3730.37 2743.60,3720.78 2741.26,3719.51 2741.93,3718.27 2736.33,3715.25 2730.37,3726.19 2738.11,3730.37"/>
    <poly id="122210890" type="building" color="255,230,230" fill="1" layer="-1.00" shape="2717.04,3282.33 2694.19,3323.37 2727.65,3342.23 2750.67,3300.85 2717.04,3282.33"/>
    <poly id="122210891" type="building" color="255,230,230" fill="1" layer="-1.00" shape="3045.12,3441.21 3076.41,3456.66 3089.64,3430.52 3091.35,3426.84 3060.80,3411.03 3045.12,3441.21"/>
    <poly id="122210892" type="building" color="255,230,230" fill="1" layer="-1.00" shape="2817.93,3650.59 2833.66,3621.96 2865.36,3639.25 2862.75,3643.99 2873.87,3650.05 2869.09,3658.75 2871.95,3660.32 2863.61,3675.49 2817.93,3650.59"/>
    <poly id="122210893" type="building" color="255,230,230" fill="1" layer="-1.00" shape="2891.69,3501.37 2900.04,3485.06 2925.91,3498.19 2923.87,3502.16 2928.65,3504.59 2924.60,3512.49 2920.03,3510.17 2917.77,3514.61 2891.69,3501.37"/>
    <poly id="122210894" type="building" color="255,230,230" fill="1" layer="-1.00" shape="2787.66,3448.97 2816.16,3397.37 2746.81,3359.41 2718.32,3411.02 2787.66,3448.97"/>
    <poly id="122210895" type="building" color="255,230,230" fill="1" layer="-1.00" shape="2818.34,3510.67 2862.67,3430.35 2877.81,3438.57 2878.96,3441.90 2835.61,3520.33 2818.34,3510.67"/>
    <poly id="122210896" type="building" color="255,230,230" fill="1" layer="-1.00" shape="2782.22,3637.83 2785.10,3632.58 2778.95,3629.24 2800.15,3590.55 2836.61,3610.38 2812.53,3654.30 2782.22,3637.83"/>
    <poly id="122210897" type="building" color="255,230,230" fill="1" layer="-1.00" shape="2917.95,3616.34 2924.46,3603.48 2972.24,3627.47 2962.08,3647.55 2928.14,3630.51 2931.79,3623.28 2917.95,3616.34"/>
    <poly id="122210898" type="building" color="255,230,230" fill="1" layer="-1.00" shape="2999.98,3471.12 3009.66,3450.90 3036.84,3464.91 3038.66,3469.63 3030.10,3485.97 2999.98,3471.12"/>
    <poly id="122210899" type="building" color="255,230,230" fill="1" layer="-1.00" shape="2792.15,3681.27 2801.51,3664.49 2819.08,3674.19 2810.36,3689.84 2809.72,3690.99 2808.59,3690.37 2792.15,3681.27"/>
    <poly id="122210900" type="building" color="255,230,230" fill="1" layer="-1.00" shape="2991.24,3405.17 3002.34,3383.32 2996.92,3380.60 2998.36,3377.76 2992.67,3374.90 2995.38,3369.58 2956.61,3350.05 2945.51,3371.91 2953.02,3375.69 2949.97,3381.68 2969.92,3391.72 2972.94,3385.80 2978.78,3388.74 2974.68,3396.83 2991.24,3405.17"/>
    <poly id="122210901" type="building" color="255,230,230" fill="1" layer="-1.00" shape="2838.29,3372.21 2844.87,3359.15 2903.17,3388.23 2896.52,3401.46 2894.49,3400.45 2893.42,3402.56 2888.91,3400.32 2890.06,3398.02 2838.29,3372.21"/>
    <poly id="122210902" type="building" color="255,230,230" fill="1" layer="-1.00" shape="2690.02,3587.13 2703.16,3562.80 2733.72,3579.88 2731.25,3585.01 2740.67,3590.19 2730.18,3608.86 2690.02,3587.13"/>
    <poly id="122210903" type="building" color="255,230,230" fill="1" layer="-1.00" shape="2872.08,3800.17 2865.98,3796.76 2865.41,3797.79 2861.29,3795.53 2862.35,3793.61 2860.29,3792.48 2862.47,3788.55 2864.25,3789.52 2867.65,3783.47 2878.13,3789.32 2872.08,3800.17"/>
    <poly id="122210904" type="building" color="255,230,230" fill="1" layer="-1.00" shape="2989.90,3593.21 3000.84,3570.85 2962.31,3551.62 2951.22,3573.82 2989.90,3593.21"/>
    <poly id="122210905" type="building" color="255,230,230" fill="1" layer="-1.00" shape="2780.37,3490.34 2823.49,3411.90 2827.43,3410.29 2842.09,3419.33 2798.01,3499.53 2780.37,3490.34"/>
    <poly id="122210906" type="building" color="255,230,230" fill="1" layer="-1.00" shape="2609.16,3542.16 2634.27,3494.64 2602.35,3477.92 2591.16,3499.11 2595.78,3501.54 2591.54,3509.53 2575.64,3501.20 2566.30,3518.86 2587.88,3530.16 2583.55,3538.36 2594.81,3544.27 2596.51,3541.06 2600.62,3543.21 2602.91,3538.89 2609.16,3542.16"/>
    <poly id="122210907" type="building" color="255,230,230" fill="1" layer="-1.00" shape="2778.10,3339.90 2801.52,3293.00 2816.61,3300.48 2815.61,3302.49 2855.61,3322.30 2833.18,3367.19 2778.10,3339.90"/>
    <poly id="122210908" type="building" color="255,230,230" fill="1" layer="-1.00" shape="2570.28,3448.61 2574.55,3440.88 2576.78,3442.12 2589.31,3419.45 2558.78,3402.72 2565.41,3390.73 2546.01,3380.10 2522.55,3422.58 2538.10,3431.10 2542.91,3422.39 2551.25,3426.95 2546.48,3435.58 2570.28,3448.61"/>
    <poly id="122210909" type="building" color="255,230,230" fill="1" layer="-1.00" shape="2959.07,3534.35 2973.53,3506.80 3015.87,3528.23 3001.99,3555.78 2959.07,3534.35"/>
    <poly id="122210910" type="building" color="255,230,230" fill="1" layer="-1.00" shape="2703.36,3562.23 2715.58,3540.13 2746.61,3557.13 2734.39,3579.23 2703.36,3562.23"/>
    <poly id="122210911" type="building" color="255,230,230" fill="1" layer="-1.00" shape="2691.44,3238.51 2696.43,3229.20 2690.99,3226.30 2695.73,3217.11 2659.19,3196.90 2611.08,3178.48 2604.26,3192.74 2640.46,3211.28 2691.44,3238.51"/>
    <poly id="122210912" type="building" color="255,230,230" fill="1" layer="-1.00" shape="2546.97,3305.47 2566.99,3268.60 2599.13,3285.90 2578.99,3322.98 2567.24,3316.66 2571.96,3307.96 2563.07,3303.16 2558.46,3311.66 2546.97,3305.47"/>
    <poly id="122210913" type="building" color="255,230,230" fill="1" layer="-1.00" shape="2624.09,3473.81 2639.11,3446.62 2624.27,3438.70 2611.57,3442.33 2601.52,3461.07 2624.09,3473.81"/>
    <poly id="122210914" type="building" color="255,230,230" fill="1" layer="-1.00" shape="2795.79,3699.57 2801.81,3688.96 2807.68,3692.05 2808.59,3690.37 2809.72,3690.99 2810.36,3689.84 2837.92,3705.32 2839.34,3709.64 2833.90,3720.45 2828.78,3721.47 2799.86,3705.58 2801.56,3702.56 2795.79,3699.57"/>
    <poly id="122210915" type="building" color="255,230,230" fill="1" layer="-1.00" shape="2662.88,3424.76 2643.65,3414.60 2656.16,3391.09 2675.35,3401.23 2662.88,3424.76"/>
    <poly id="122210916" type="building" color="255,230,230" fill="1" layer="-1.00" shape="3016.76,3426.60 3032.45,3396.42 3060.80,3411.03 3045.12,3441.21 3016.76,3426.60"/>
    <poly id="122210917" type="building" color="255,230,230" fill="1" layer="-1.00" shape="2581.51,3227.64 2586.72,3217.04 2677.37,3265.00 2671.74,3275.39 2581.51,3227.64"/>
    <poly id="122210918" type="building" color="255,230,230" fill="1" layer="-1.00" shape="2905.47,3651.04 2911.88,3638.32 2955.98,3660.36 2946.00,3680.17 2914.00,3664.19 2917.58,3657.09 2905.47,3651.04"/>
    <poly id="122210919" type="building" color="255,230,230" fill="1" layer="-1.00" shape="2840.72,3610.20 2855.91,3582.39 2874.17,3592.27 2880.16,3581.30 2888.16,3585.63 2887.49,3586.85 2893.30,3590.00 2890.01,3596.02 2892.43,3597.32 2877.60,3624.49 2869.39,3620.05 2867.00,3624.42 2840.72,3610.20"/>
    <poly id="122210920" type="building" color="255,230,230" fill="1" layer="-1.00" shape="2872.49,3528.74 2876.83,3520.23 2878.54,3521.09 2882.22,3513.85 2926.37,3536.18 2924.77,3539.31 2926.52,3540.18 2920.09,3552.80 2872.49,3528.74"/>
    <poly id="122312276" type="building" color="255,230,230" fill="1" layer="-1.00" shape="3011.88,3164.61 3021.19,3135.89 2979.90,3122.63 2972.37,3145.87 2966.54,3143.98 2964.76,3149.47 3011.88,3164.61"/>
    <poly id="122312279" type="building" color="255,230,230" fill="1" layer="-1.00" shape="2831.26,3252.31 2836.37,3242.36 2830.83,3239.54 2846.93,3208.15 2866.83,3218.27 2845.62,3259.60 2831.26,3252.31"/>
    <poly id="122312281" type="building" color="255,230,230" fill="1" layer="-1.00" shape="2810.23,3219.91 2858.74,3124.86 2852.82,3121.87 2804.32,3216.92 2810.23,3219.91"/>
    <poly id="122312282" type="building" color="255,230,230" fill="1" layer="-1.00" shape="3099.31,3075.54 3115.52,3034.48 3126.41,3038.74 3128.46,3033.54 3139.98,3038.05 3137.89,3043.35 3143.65,3045.61 3145.77,3040.24 3152.19,3042.75 3133.89,3089.09 3099.31,3075.54"/>
    <poly id="122312285" type="building" color="255,230,230" fill="1" layer="-1.00" shape="3137.30,3197.28 3138.02,3196.16 3153.94,3159.71 3154.78,3158.33 3177.17,3168.30 3179.56,3170.57 3179.95,3173.69 3164.41,3209.33 3137.30,3197.28"/>
    <poly id="122312287" type="building" color="255,230,230" fill="1" layer="-1.00" shape="2716.58,3176.45 2758.13,3094.27 2804.67,3117.62 2763.11,3199.78 2716.58,3176.45"/>
    <poly id="122312289" type="building" color="255,230,230" fill="1" layer="-1.00" shape="2947.31,3032.39 2945.67,3020.27 2929.33,3023.17 2927.97,3017.59 2949.25,2976.36 3027.72,2961.47 3055.69,2960.96 3037.71,3015.27 2947.31,3032.39"/>
    <poly id="122312291" type="building" color="255,230,230" fill="1" layer="-1.00" shape="2856.12,3113.84 2918.19,2990.92 2929.35,2996.51 2867.28,3119.44 2856.12,3113.84"/>
    <poly id="122312292" type="building" color="255,230,230" fill="1" layer="-1.00" shape="3109.89,3183.98 3125.88,3147.33 3144.77,3155.50 3145.89,3152.92 3153.49,3156.22 3152.28,3158.99 3153.94,3159.71 3138.02,3196.16 3109.89,3183.98"/>
    <poly id="122312294" type="building" color="255,230,230" fill="1" layer="-1.00" shape="3076.45,3164.64 3052.20,3154.01 3066.32,3122.07 3090.56,3132.71 3089.99,3133.99 3076.45,3164.64"/>
    <poly id="122312296" type="building" color="255,230,230" fill="1" layer="-1.00" shape="3071.93,3219.29 3088.54,3186.57 3118.02,3201.42 3117.25,3202.93 3101.40,3234.14 3071.93,3219.29"/>
    <poly id="122312297" type="building" color="255,230,230" fill="1" layer="-1.00" shape="2662.88,3424.76 2675.35,3401.23 2692.06,3410.05 2679.55,3433.55 2662.88,3424.76"/>
    <poly id="122312301" type="building" color="255,230,230" fill="1" layer="-1.00" shape="2915.44,3128.06 2940.17,3079.03 2913.67,3065.77 2916.21,3060.73 2912.01,3058.62 2884.83,3112.52 2915.44,3128.06"/>
    <poly id="122312302" type="building" color="255,230,230" fill="1" layer="-1.00" shape="3103.19,3179.94 3118.19,3146.52 3089.99,3133.99 3076.45,3164.64 3075.13,3167.46 3103.19,3179.94"/>
    <poly id="122312305" type="building" color="255,230,230" fill="1" layer="-1.00" shape="3046.55,3149.74 3059.72,3120.74 3033.92,3109.42 3024.05,3140.12 3046.55,3149.74"/>
    <poly id="122312306" type="building" color="255,230,230" fill="1" layer="-1.00" shape="2796.70,3233.55 2801.14,3225.30 2815.69,3233.07 2811.25,3241.32 2796.70,3233.55"/>
    <poly id="122312309" type="building" color="255,230,230" fill="1" layer="-1.00" shape="3140.26,3091.68 3158.70,3046.18 3215.83,3069.14 3197.39,3114.63 3140.26,3091.68"/>
    <poly id="122312310" type="building" color="255,230,230" fill="1" layer="-1.00" shape="2727.95,3262.74 2761.80,3280.81 2773.55,3259.69 2739.96,3241.18 2727.95,3262.74"/>
    <poly id="122312311" type="building" color="255,230,230" fill="1" layer="-1.00" shape="3066.58,3476.05 3076.41,3456.66 3089.64,3430.52 3122.62,3447.08 3099.56,3492.62 3066.58,3476.05"/>
    <poly id="122312315" type="building" color="255,230,230" fill="1" layer="-1.00" shape="2851.09,3250.18 2863.88,3225.14 2889.64,3238.21 2876.84,3263.24 2851.09,3250.18"/>
    <poly id="122312316" type="building" color="255,230,230" fill="1" layer="-1.00" shape="2913.36,3294.14 2915.87,3286.52 2903.65,3282.51 2912.75,3254.97 2941.38,3264.36 2929.77,3299.51 2913.36,3294.14"/>
    <poly id="122312318" type="building" color="255,230,230" fill="1" layer="-1.00" shape="2727.95,3262.74 2717.04,3282.33 2750.67,3300.85 2761.80,3280.81 2727.95,3262.74"/>
    <poly id="122312320" type="building" color="255,230,230" fill="1" layer="-1.00" shape="2758.13,3094.27 2755.25,3092.62 2785.49,3033.01 2846.38,3018.95 2852.89,3022.54 2804.67,3117.62 2758.13,3094.27"/>
    <poly id="122312322" type="building" color="255,230,230" fill="1" layer="-1.00" shape="3006.30,3194.55 3019.97,3153.22 3044.82,3165.95 3038.73,3178.20 3055.30,3186.56 3041.33,3212.36 3006.30,3194.55"/>
    <poly id="122312324" type="building" color="255,230,230" fill="1" layer="-1.00" shape="2656.16,3391.09 2666.72,3370.80 2702.74,3389.53 2692.06,3410.05 2675.35,3401.23 2656.16,3391.09"/>
    <poly id="122312326" type="building" color="255,230,230" fill="1" layer="-1.00" shape="2928.63,3218.67 2936.61,3194.37 2950.98,3199.04 2953.50,3191.38 2998.09,3205.89 2987.60,3237.86 2928.63,3218.67"/>
    <poly id="122312328" type="building" color="255,230,230" fill="1" layer="-1.00" shape="2847.43,3185.82 2861.47,3158.37 2898.15,3176.99 2894.67,3183.81 2908.18,3190.66 2897.63,3211.30 2847.43,3185.82"/>
    <poly id="122312331" type="building" color="255,230,230" fill="1" layer="-1.00" shape="2984.49,3108.91 2993.66,3081.10 3025.61,3091.55 3016.44,3119.35 2984.49,3108.91"/>
    <poly id="122312332" type="building" color="255,230,230" fill="1" layer="-1.00" shape="2996.57,3224.53 3006.30,3194.55 3041.33,3212.36 3027.34,3239.92 2996.57,3224.53"/>
    <poly id="122312334" type="building" color="255,230,230" fill="1" layer="-1.00" shape="2849.49,3110.55 2909.93,2990.25 2902.96,2986.78 2889.19,3014.19 2877.99,3008.61 2831.33,3101.50 2849.49,3110.55"/>
    <poly id="122312338" type="building" color="255,230,230" fill="1" layer="-1.00" shape="2619.26,3150.53 2678.30,3043.15 2713.03,3062.96 2653.86,3169.56 2619.26,3150.53"/>
    <poly id="122312342" type="building" color="255,230,230" fill="1" layer="-1.00" shape="2958.82,3179.71 2966.67,3156.26 2962.75,3154.96 2964.76,3149.47 3011.88,3164.61 3002.12,3194.09 2958.82,3179.71"/>
    <poly id="122312347" type="building" color="255,230,230" fill="1" layer="-1.00" shape="2851.70,3167.06 2869.48,3132.23 2864.18,3129.54 2814.39,3227.09 2819.70,3229.78 2851.70,3167.06"/>
    <poly id="122312348" type="building" color="255,230,230" fill="1" layer="-1.00" shape="3051.30,3055.35 3068.05,3004.34 3105.73,3018.75 3085.78,3068.41 3051.30,3055.35"/>
    <poly id="122312351" type="building" color="255,230,230" fill="1" layer="-1.00" shape="2793.62,3223.52 2847.40,3117.59 2831.00,3109.33 2781.04,3207.72 2788.93,3211.69 2785.11,3219.23 2793.62,3223.52"/>
    <poly id="122312352" type="building" color="255,230,230" fill="1" layer="-1.00" shape="2870.14,3141.19 2884.83,3112.52 2915.44,3128.06 2917.44,3129.09 2913.82,3136.15 2927.72,3143.21 2916.65,3164.83 2870.14,3141.19"/>
    <poly id="122312355" type="building" color="255,230,230" fill="1" layer="-1.00" shape="2929.78,3302.33 2943.79,3258.75 2968.53,3266.64 2954.52,3310.22 2929.78,3302.33"/>
    <poly id="122318111" type="building" color="255,230,230" fill="1" layer="-1.00" shape="3248.38,4027.46 3229.53,4062.30 3218.37,4056.07 3236.77,4022.66 3237.60,4021.15 3248.38,4027.46"/>
    <poly id="122318112" type="building" color="255,230,230" fill="1" layer="-1.00" shape="3274.33,3572.33 3300.53,3520.95 3334.67,3538.20 3308.48,3589.59 3274.33,3572.33"/>
    <poly id="122318113" type="building" color="255,230,230" fill="1" layer="-1.00" shape="3067.84,3890.14 3089.98,3900.75 3078.74,3923.16 3056.76,3912.22 3067.84,3890.14"/>
    <poly id="122318114" type="building" color="255,230,230" fill="1" layer="-1.00" shape="3212.42,3583.17 3228.97,3550.21 3260.26,3565.90 3243.56,3598.70 3212.42,3583.17"/>
    <poly id="122318115" type="building" color="255,230,230" fill="1" layer="-1.00" shape="3484.98,3895.76 3473.82,3890.03 3491.96,3855.05 3503.11,3860.77 3484.98,3895.76"/>
    <poly id="122318116" type="building" color="255,230,230" fill="1" layer="-1.00" shape="3408.90,3271.90 3420.70,3246.03 3382.08,3228.56 3375.56,3242.88 3369.72,3240.25 3364.46,3251.79 3408.90,3271.90"/>
    <poly id="122318117" type="building" color="255,230,230" fill="1" layer="-1.00" shape="3131.76,4101.72 3119.28,4094.89 3123.67,4087.05 3136.10,4093.90 3131.76,4101.72"/>
    <poly id="122318118" type="building" color="255,230,230" fill="1" layer="-1.00" shape="2891.75,3821.27 2911.67,3785.02 2932.79,3796.52 2912.87,3832.77 2891.75,3821.27"/>
    <poly id="122318119" type="building" color="255,230,230" fill="1" layer="-1.00" shape="3369.55,3954.32 3387.52,3919.04 3413.59,3932.20 3395.62,3967.50 3369.55,3954.32"/>
    <poly id="122318120" type="building" color="255,230,230" fill="1" layer="-1.00" shape="3127.09,3923.94 3138.32,3901.78 3165.62,3915.50 3154.40,3937.66 3127.09,3923.94"/>
    <poly id="122318121" type="building" color="255,230,230" fill="1" layer="-1.00" shape="3286.26,3483.13 3289.64,3475.84 3296.71,3479.10 3293.33,3486.38 3286.26,3483.13"/>
    <poly id="122318122" type="building" color="255,230,230" fill="1" layer="-1.00" shape="3228.97,3550.21 3233.75,3540.75 3237.30,3542.53 3253.31,3510.86 3281.05,3524.77 3260.26,3565.90 3228.97,3550.21"/>
    <poly id="122318123" type="building" color="255,230,230" fill="1" layer="-1.00" shape="3207.18,3302.34 3224.54,3263.28 3241.27,3270.66 3236.16,3282.14 3269.69,3296.92 3257.43,3324.50 3207.18,3302.34"/>
    <poly id="122318124" type="building" color="255,230,230" fill="1" layer="-1.00" shape="3471.44,3699.58 3508.20,3627.02 3532.86,3639.41 3496.11,3711.98 3471.44,3699.58"/>
    <poly id="122318125" type="building" color="255,230,230" fill="1" layer="-1.00" shape="3338.45,3418.62 3365.63,3357.00 3429.96,3385.13 3402.78,3446.77 3338.45,3418.62"/>
    <poly id="122318126" type="building" color="255,230,230" fill="1" layer="-1.00" shape="3519.36,3740.29 3554.55,3757.74 3541.53,3783.76 3506.35,3766.31 3519.36,3740.29"/>
    <poly id="122318127" type="building" color="255,230,230" fill="1" layer="-1.00" shape="3265.80,3433.07 3308.48,3451.78 3300.53,3469.54 3257.94,3450.62 3265.80,3433.07"/>
    <poly id="122318128" type="building" color="255,230,230" fill="1" layer="-1.00" shape="3257.94,3604.51 3274.33,3572.33 3308.48,3589.59 3292.16,3621.89 3257.94,3604.51"/>
    <poly id="122318129" type="building" color="255,230,230" fill="1" layer="-1.00" shape="3304.85,3210.21 3345.53,3171.05 3360.59,3186.57 3355.55,3191.42 3358.24,3194.18 3353.37,3198.86 3355.48,3201.03 3324.70,3230.66 3304.85,3210.21"/>
    <poly id="122318130" type="building" color="255,230,230" fill="1" layer="-1.00" shape="3145.59,4103.71 3147.62,4100.25 3155.31,4086.39 3168.02,4063.26 3171.81,4057.09 3192.97,4068.93 3166.67,4115.51 3145.59,4103.71"/>
    <poly id="122318131" type="building" color="255,230,230" fill="1" layer="-1.00" shape="2956.49,3819.72 2942.65,3844.42 2934.08,3839.66 2947.92,3814.96 2956.49,3819.72"/>
    <poly id="122318132" type="building" color="255,230,230" fill="1" layer="-1.00" shape="3182.54,3430.09 3209.56,3376.58 3234.39,3389.02 3211.79,3433.77 3207.78,3431.76 3203.36,3440.51 3182.54,3430.09"/>
    <poly id="122318133" type="building" color="255,230,230" fill="1" layer="-1.00" shape="3038.97,3530.11 3053.93,3500.54 3074.07,3510.63 3072.37,3513.97 3080.11,3517.85 3075.90,3526.18 3068.79,3522.62 3066.38,3527.38 3090.04,3539.24 3085.96,3547.31 3082.04,3545.34 3079.47,3550.41 3038.97,3530.11"/>
    <poly id="122318136" type="building" color="255,230,230" fill="1" layer="-1.00" shape="3425.39,3984.54 3424.92,3985.57 3448.38,3997.24 3467.38,3959.36 3443.99,3947.62 3425.39,3984.54"/>
    <poly id="122318137" type="building" color="255,230,230" fill="1" layer="-1.00" shape="3395.51,3650.69 3384.60,3645.18 3418.03,3579.62 3428.94,3585.14 3395.51,3650.69"/>
    <poly id="122318138" type="building" color="255,230,230" fill="1" layer="-1.00" shape="3236.51,3743.01 3214.31,3786.32 3181.82,3769.82 3186.17,3761.33 3180.41,3758.41 3198.20,3723.75 3236.51,3743.01"/>
    <poly id="122318139" type="building" color="255,230,230" fill="1" layer="-1.00" shape="3346.57,3884.59 3361.31,3856.45 3267.79,3807.83 3264.23,3814.63 3265.29,3815.18 3262.57,3820.37 3261.51,3819.82 3258.43,3825.71 3259.96,3826.51 3257.42,3831.36 3256.11,3830.67 3253.09,3836.42 3320.15,3871.29 3319.59,3872.36 3326.67,3876.03 3327.40,3874.63 3346.57,3884.59"/>
    <poly id="122318140" type="building" color="255,230,230" fill="1" layer="-1.00" shape="3461.96,3884.15 3449.78,3877.92 3467.92,3842.77 3480.09,3849.00 3461.96,3884.15"/>
    <poly id="122318141" type="building" color="255,230,230" fill="1" layer="-1.00" shape="3240.71,3265.36 3252.04,3240.37 3287.87,3256.50 3276.54,3281.47 3240.71,3265.36"/>
    <poly id="122318142" type="building" color="255,230,230" fill="1" layer="-1.00" shape="3374.85,4047.99 3393.10,4016.03 3366.34,4000.87 3348.08,4032.82 3374.85,4047.99"/>
    <poly id="122318143" type="building" color="255,230,230" fill="1" layer="-1.00" shape="3277.00,3698.82 3233.41,3677.42 3229.66,3684.71 3267.85,3703.83 3269.84,3699.90 3275.06,3702.51 3277.00,3698.82"/>
    <poly id="122318144" type="building" color="255,230,230" fill="1" layer="-1.00" shape="3550.55,4064.08 3568.25,4031.53 3549.52,4021.43 3545.26,4029.30 3542.48,4027.80 3529.19,4052.27 3532.05,4053.82 3530.45,4056.73 3546.30,4065.28 3547.77,4062.58 3550.55,4064.08"/>
    <poly id="122318145" type="building" color="255,230,230" fill="1" layer="-1.00" shape="2966.89,3863.11 2986.32,3827.60 3027.65,3850.03 3018.04,3867.60 2995.78,3855.52 2985.96,3873.47 2966.89,3863.11"/>
    <poly id="122318146" type="building" color="255,230,230" fill="1" layer="-1.00" shape="3401.08,4014.58 3406.78,4003.26 3433.56,4016.62 3427.86,4027.94 3419.49,4023.78 3401.08,4014.58"/>
    <poly id="122318147" type="building" color="255,230,230" fill="1" layer="-1.00" shape="3377.43,4089.89 3364.49,4113.02 3352.57,4134.41 3336.02,4125.14 3343.54,4111.77 3359.93,4082.40 3365.71,4085.63 3366.70,4083.89 3377.43,4089.89"/>