<?xml version="1.0" encoding="UTF-8"?>
<routes>
 
  <!-- Manual driving vehicle -Krauss Model (tau here is T_g and not controller delay!) -->
  <vType id="TypeManual" length="5.0" minGap="2.0" maxSpeed="30.0" vClass="passenger">
      <carFollowing-Krauss accel="3.0" decel="5.0" sigma="0" tau="1.64" />
  </vType>  

  <!-- Manual driving vehicle -represent a HIL vehicle -->
  <vType id="TypeHIL" length="5.0" minGap="2.0" maxSpeed="30.0" vClass="passenger">
      <carFollowing-Krauss accel="3.0" decel="5.0" sigma="0" tau="1.64" />
  </vType>  
  
  <!-- Manual driving vehicle with lower decel value -represent a HIL vehicle -->
  <vType id="TypeHIL2" length="5.0" minGap="2.0" maxSpeed="30.0" vClass="passenger">
      <carFollowing-KraussOrig1 accel="3.0" decel="3.0" sigma="0" tau="1.64" />
  </vType> 

  <route id="route1" edges="416208108#1 416208108#2 416208108#3 416208103#0 416208103#1 157782162#1 416208091   25896716#0"  />
  
  <route id="route2" edges="110178026#3 416208111#0 416208111#1 416208111#2 416208111#3 416208111#4 416208111#5 416208107#1 416208107#2 157782155#0 157782155#1 157782155#2" />  

</routes>
