<?xml version="1.0" encoding="UTF-8"?>

<!-- generated on Sat Apr 25 21:04:41 2015 by SUMO netconvert Version dev-SVN-r17994D
<?xml version="1.0" encoding="UTF-8"?>

<configuration xmlns:xsi="http://www.w3.org/2001/XMLSchema-instance" xsi:noNamespaceSchemaLocation="http://sumo.dlr.de/xsd/netconvertConfiguration.xsd">

    <input>
        <node-files value="01.plain.nod.xml"/>
        <edge-files value="02.plain.edg.xml"/>
        <connection-files value="03.plain.con.xml"/>
    </input>

    <output>
        <output-file value="04.plain.net.xml"/>
    </output>

</configuration>
-->

<net version="0.13" xmlns:xsi="http://www.w3.org/2001/XMLSchema-instance" xsi:noNamespaceSchemaLocation="http://sumo.dlr.de/xsd/net_file.xsd">

    <location netOffset="300.00,300.00" convBoundary="0.00,0.00,600.00,600.00" origBoundary="-300.00,-300.00,300.00,300.00" projParameter="!"/>

    <edge id=":C_0" function="internal">
        <lane id=":C_0_0" index="0" allow="bicycle" speed="13.89" length="7.50" width="1.00" shape="292.85,313.10 292.43,310.50 291.18,308.64 289.08,307.52 286.15,307.15"/>
    </edge>
    <edge id=":C_1" function="internal">
        <lane id=":C_1_0" index="0" allow="bicycle" speed="13.89" length="27.70" width="1.00" shape="292.85,313.10 292.85,304.88 292.85,299.25 292.85,293.62 292.85,285.40"/>
    </edge>
    <edge id=":C_2" function="internal">
        <lane id=":C_2_0" index="0" allow="passenger" speed="13.89" length="7.50" shape="295.05,313.10 294.49,309.53 293.85,308.55"/>
    </edge>
    <edge id=":C_3" function="internal">
        <lane id=":C_3_0" index="0" allow="passenger" speed="13.89" length="27.70" shape="295.05,313.10 295.05,304.88 295.05,299.25 295.05,293.62 295.05,285.40"/>
    </edge>
    <edge id=":C_4" function="internal">
        <lane id=":C_4_0" index="0" allow="passenger" speed="13.89" length="13.27" shape="298.35,313.10 299.32,306.65 302.23,302.04 303.35,301.40"/>
    </edge>
    <edge id=":C_20" function="internal">
        <lane id=":C_20_0" index="0" speed="13.89" length="8.97" shape="293.85,308.55 292.83,306.99 290.04,305.46 286.15,304.95"/>
    </edge>
    <edge id=":C_21" function="internal">
        <lane id=":C_21_0" index="0" speed="13.89" length="11.13" shape="303.35,301.40 307.07,299.27 313.85,298.35"/>
    </edge>
    <edge id=":C_5" function="internal">
        <lane id=":C_5_0" index="0" allow="bicycle" speed="13.89" length="7.78" width="1.00" shape="313.85,307.15 310.92,307.52 308.82,308.64 307.57,310.50 307.15,313.10"/>
    </edge>
    <edge id=":C_6" function="internal">
        <lane id=":C_6_0" index="0" allow="bicycle" speed="13.89" length="27.70" width="1.00" shape="313.85,307.15 305.63,307.15 300.00,307.15 294.37,307.15 286.15,307.15"/>
    </edge>
    <edge id=":C_7" function="internal">
        <lane id=":C_7_0" index="0" allow="passenger" speed="13.89" length="7.78" shape="313.85,304.95 309.96,305.46 308.70,306.15"/>
    </edge>
    <edge id=":C_8" function="internal">
        <lane id=":C_8_0" index="0" allow="passenger" speed="13.89" length="27.70" shape="313.85,304.95 305.63,304.95 300.00,304.95 294.37,304.95 286.15,304.95"/>
    </edge>
    <edge id=":C_9" function="internal">
        <lane id=":C_9_0" index="0" allow="passenger" speed="13.89" length="13.66" shape="313.85,301.65 307.07,300.63 302.23,297.59 301.69,296.65"/>
    </edge>
    <edge id=":C_22" function="internal">
        <lane id=":C_22_0" index="0" speed="13.89" length="8.39" shape="308.70,306.15 307.18,306.99 305.51,309.53 304.95,313.10"/>
    </edge>
    <edge id=":C_23" function="internal">
        <lane id=":C_23_0" index="0" speed="13.89" length="11.95" shape="301.69,296.65 299.32,292.51 298.35,285.40"/>
    </edge>
    <edge id=":C_10" function="internal">
        <lane id=":C_10_0" index="0" allow="bicycle" speed="13.89" length="8.50" width="1.00" shape="307.15,285.40 307.57,288.66 308.82,290.99 310.92,292.38 313.85,292.85"/>
    </edge>
    <edge id=":C_11" function="internal">
        <lane id=":C_11_0" index="0" allow="bicycle" speed="13.89" length="27.70" width="1.00" shape="307.15,285.40 307.15,293.62 307.15,299.25 307.15,304.88 307.15,313.10"/>
    </edge>
    <edge id=":C_12" function="internal">
        <lane id=":C_12_0" index="0" allow="passenger" speed="13.89" length="8.50" shape="304.95,285.40 305.51,289.62 306.15,290.79"/>
    </edge>
    <edge id=":C_13" function="internal">
        <lane id=":C_13_0" index="0" allow="passenger" speed="13.89" length="27.70" shape="304.95,285.40 304.95,293.62 304.95,299.25 304.95,304.88 304.95,313.10"/>
    </edge>
    <edge id=":C_14" function="internal">
        <lane id=":C_14_0" index="0" allow="passenger" speed="13.89" length="14.36" shape="301.65,285.40 300.68,292.51 297.77,297.59 296.65,298.30"/>
    </edge>
    <edge id=":C_24" function="internal">
        <lane id=":C_24_0" index="0" speed="13.89" length="9.38" shape="306.15,290.79 307.17,292.64 309.96,294.45 313.85,295.05"/>
    </edge>
    <edge id=":C_25" function="internal">
        <lane id=":C_25_0" index="0" speed="13.89" length="11.25" shape="296.65,298.30 292.93,300.63 286.15,301.65"/>
    </edge>
    <edge id=":C_15" function="internal">
        <lane id=":C_15_0" index="0" allow="bicycle" speed="13.89" length="8.23" width="1.00" shape="286.15,292.85 289.08,292.38 291.17,290.99 292.43,288.66 292.85,285.40"/>
    </edge>
    <edge id=":C_16" function="internal">
        <lane id=":C_16_0" index="0" allow="bicycle" speed="13.89" length="27.70" width="1.00" shape="286.15,292.85 294.37,292.85 300.00,292.85 305.63,292.85 313.85,292.85"/>
    </edge>
    <edge id=":C_17" function="internal">
        <lane id=":C_17_0" index="0" allow="passenger" speed="13.89" length="8.23" shape="286.15,295.05 290.04,294.45 290.96,293.85"/>
    </edge>
    <edge id=":C_18" function="internal">
        <lane id=":C_18_0" index="0" allow="passenger" speed="13.89" length="27.70" shape="286.15,295.05 294.37,295.05 300.00,295.05 305.63,295.05 313.85,295.05"/>
    </edge>
    <edge id=":C_19" function="internal">
        <lane id=":C_19_0" index="0" allow="passenger" speed="13.89" length="13.97" shape="286.15,298.35 292.93,299.27 297.77,302.04 298.60,303.35"/>
    </edge>
    <edge id=":C_26" function="internal">
        <lane id=":C_26_0" index="0" speed="13.89" length="9.93" shape="290.96,293.85 292.82,292.64 294.49,289.62 295.05,285.40"/>
    </edge>
    <edge id=":C_27" function="internal">
        <lane id=":C_27_0" index="0" speed="13.89" length="10.42" shape="298.60,303.35 300.68,306.65 301.65,313.10"/>
    </edge>
    <edge id=":C_c0" function="crossing" crossingEdges="CN NC">
        <lane id=":C_c0_0" index="0" allow="pedestrian" speed="1.00" length="15.30" width="4.00" shape="307.65,311.10 292.35,311.10"/>
    </edge>
    <edge id=":C_c1" function="crossing" crossingEdges="CE EC">
        <lane id=":C_c1_0" index="0" allow="pedestrian" speed="1.00" length="15.30" width="4.00" shape="311.85,292.35 311.85,307.65"/>
    </edge>
    <edge id=":C_c2" function="crossing" crossingEdges="CS SC">
        <lane id=":C_c2_0" index="0" allow="pedestrian" speed="1.00" length="15.30" width="4.00" shape="292.35,287.40 307.65,287.40"/>
    </edge>
    <edge id=":C_c3" function="crossing" crossingEdges="CW WC">
        <lane id=":C_c3_0" index="0" allow="pedestrian" speed="1.00" length="15.30" width="4.00" shape="288.15,307.65 288.15,292.35"/>
    </edge>
    <edge id=":C_w0" function="walkingarea">
        <lane id=":C_w0_0" index="0" allow="pedestrian" speed="1.00" length="4.74" width="4.00" shape="290.15,307.65 286.15,307.65 286.15,309.35 286.15,311.60 287.65,313.10 290.65,313.10 292.35,313.10 292.35,309.10"/>
    </edge>
    <edge id=":C_w1" function="walkingarea">
        <lane id=":C_w1_0" index="0" allow="pedestrian" speed="1.00" length="4.74" width="4.00" shape="307.65,309.10 307.65,313.10 309.35,313.10 312.35,313.10 313.85,310.85 313.85,309.35 313.85,307.65 309.85,307.65"/>
    </edge>
    <edge id=":C_w2" function="walkingarea">
        <lane id=":C_w2_0" index="0" allow="pedestrian" speed="1.00" length="5.37" width="4.00" shape="309.85,292.35 313.85,292.35 313.85,290.65 313.85,286.90 312.35,285.40 309.35,285.40 307.65,285.40 307.65,289.40"/>
    </edge>
    <edge id=":C_w3" function="walkingarea">
        <lane id=":C_w3_0" index="0" allow="pedestrian" speed="1.00" length="5.38" width="4.00" shape="292.35,289.40 292.35,285.40 290.65,285.40 287.65,285.40 286.15,287.65 286.15,290.65 286.15,292.35 290.15,292.35"/>
    </edge>
    <edge id=":E_0" function="internal">
        <lane id=":E_0_0" index="0" allow="passenger" speed="13.89" length="4.82" shape="600.00,298.35 601.24,299.17 601.65,300.00 601.24,300.82 600.00,301.65"/>
    </edge>
    <edge id=":E_w0" function="walkingarea">
        <lane id=":E_w0_0" index="0" allow="pedestrian" speed="1.00" length="21.33" width="3.75" shape="600.00,309.35 600.00,310.85 600.00,286.90 600.00,290.65"/>
    </edge>
    <edge id=":N_0" function="internal">
        <lane id=":N_0_0" index="0" allow="passenger" speed="13.89" length="4.82" shape="301.65,600.00 300.83,601.24 300.00,601.65 299.18,601.24 298.35,600.00"/>
    </edge>
    <edge id=":N_w0" function="walkingarea">
        <lane id=":N_w0_0" index="0" allow="pedestrian" speed="1.00" length="21.70" width="3.00" shape="290.65,600.00 287.65,600.00 312.35,600.00 309.35,600.00"/>
    </edge>
    <edge id=":S_0" function="internal">
        <lane id=":S_0_0" index="0" allow="passenger" speed="13.89" length="4.82" shape="298.35,0.00 299.17,-1.24 300.00,-1.65 300.82,-1.24 301.65,0.00"/>
    </edge>
    <edge id=":S_w0" function="walkingarea">
        <lane id=":S_w0_0" index="0" allow="pedestrian" speed="1.00" length="21.70" width="3.00" shape="309.35,0.00 312.35,0.00 287.65,0.00 290.65,0.00"/>
    </edge>
    <edge id=":W_0" function="internal">
        <lane id=":W_0_0" index="0" allow="passenger" speed="13.89" length="4.82" shape="0.00,301.65 -1.24,300.83 -1.65,300.00 -1.24,299.18 0.00,298.35"/>
    </edge>
    <edge id=":W_w0" function="walkingarea">
        <lane id=":W_w0_0" index="0" allow="pedestrian" speed="1.00" length="21.33" width="3.00" shape="0.00,290.65 0.00,287.65 0.00,311.60 0.00,309.35"/>
    </edge>

    <edge id="CE" from="C" to="E" priority="2">
        <lane id="CE_0" index="0" allow="pedestrian" speed="13.89" length="286.15" width="3.75" shape="313.85,288.77 600.00,288.77"/>
        <lane id="CE_1" index="1" disallow="all" speed="13.89" length="286.15" width="1.50" shape="313.85,291.50 600.00,291.50"/>
        <lane id="CE_2" index="2" allow="bicycle" speed="13.89" length="286.15" width="1.00" shape="313.85,292.85 600.00,292.85"/>
        <lane id="CE_3" index="3" allow="passenger" speed="13.89" length="286.15" shape="313.85,295.05 600.00,295.05"/>
        <lane id="CE_4" index="4" allow="passenger" speed="13.89" length="286.15" shape="313.85,298.35 600.00,298.35"/>
    </edge>
    <edge id="CN" from="C" to="N" priority="2">
        <lane id="CN_0" index="0" allow="pedestrian" speed="13.89" length="286.90" width="3.00" shape="310.85,313.10 310.85,600.00"/>
        <lane id="CN_1" index="1" disallow="all" speed="13.89" length="286.90" width="1.50" shape="308.50,313.10 308.50,600.00"/>
        <lane id="CN_2" index="2" allow="bicycle" speed="13.89" length="286.90" width="1.00" shape="307.15,313.10 307.15,600.00"/>
        <lane id="CN_3" index="3" allow="passenger" speed="13.89" length="286.90" shape="304.95,313.10 304.95,600.00"/>
        <lane id="CN_4" index="4" allow="passenger" speed="13.89" length="286.90" shape="301.65,313.10 301.65,600.00"/>
    </edge>
    <edge id="CS" from="C" to="S" priority="2">
        <lane id="CS_0" index="0" allow="pedestrian" speed="13.89" length="285.40" width="3.00" shape="289.15,285.40 289.15,0.00"/>
        <lane id="CS_1" index="1" disallow="all" speed="13.89" length="285.40" width="1.50" shape="291.50,285.40 291.50,0.00"/>
        <lane id="CS_2" index="2" allow="bicycle" speed="13.89" length="285.40" width="1.00" shape="292.85,285.40 292.85,0.00"/>
        <lane id="CS_3" index="3" allow="passenger" speed="13.89" length="285.40" shape="295.05,285.40 295.05,0.00"/>
        <lane id="CS_4" index="4" allow="passenger" speed="13.89" length="285.40" shape="298.35,285.40 298.35,0.00"/>
    </edge>
    <edge id="CW" from="C" to="W" priority="2">
        <lane id="CW_0" index="0" allow="pedestrian" speed="13.89" length="286.15" width="2.25" shape="286.15,310.48 0.00,310.48"/>
        <lane id="CW_1" index="1" disallow="all" speed="13.89" length="286.15" width="1.50" shape="286.15,308.50 0.00,308.50"/>
        <lane id="CW_2" index="2" allow="bicycle" speed="13.89" length="286.15" width="1.00" shape="286.15,307.15 0.00,307.15"/>
        <lane id="CW_3" index="3" allow="passenger" speed="13.89" length="286.15" shape="286.15,304.95 0.00,304.95"/>
        <lane id="CW_4" index="4" allow="passenger" speed="13.89" length="286.15" shape="286.15,301.65 0.00,301.65"/>
    </edge>
    <edge id="EC" from="E" to="C" priority="2">
        <lane id="EC_0" index="0" allow="pedestrian" speed="13.89" length="286.15" width="1.50" shape="600.00,310.10 313.85,310.10"/>
        <lane id="EC_1" index="1" disallow="all" speed="13.89" length="286.15" width="1.50" shape="600.00,308.50 313.85,308.50"/>
        <lane id="EC_2" index="2" allow="bicycle" speed="13.89" length="286.15" width="1.00" shape="600.00,307.15 313.85,307.15"/>
        <lane id="EC_3" index="3" allow="passenger" speed="13.89" length="286.15" shape="600.00,304.95 313.85,304.95"/>
        <lane id="EC_4" index="4" allow="passenger" speed="13.89" length="286.15" shape="600.00,301.65 313.85,301.65"/>
    </edge>
    <edge id="NC" from="N" to="C" priority="2">
        <lane id="NC_0" index="0" allow="pedestrian" speed="13.89" length="286.90" width="3.00" shape="289.15,600.00 289.15,313.10"/>
        <lane id="NC_1" index="1" disallow="all" speed="13.89" length="286.90" width="1.50" shape="291.50,600.00 291.50,313.10"/>
        <lane id="NC_2" index="2" allow="bicycle" speed="13.89" length="286.90" width="1.00" shape="292.85,600.00 292.85,313.10"/>
        <lane id="NC_3" index="3" allow="passenger" speed="13.89" length="286.90" shape="295.05,600.00 295.05,313.10"/>
        <lane id="NC_4" index="4" allow="passenger" speed="13.89" length="286.90" shape="298.35,600.00 298.35,313.10"/>
    </edge>
    <edge id="SC" from="S" to="C" priority="2">
        <lane id="SC_0" index="0" allow="pedestrian" speed="13.89" length="285.40" width="3.00" shape="310.85,0.00 310.85,285.40"/>
        <lane id="SC_1" index="1" disallow="all" speed="13.89" length="285.40" width="1.50" shape="308.50,0.00 308.50,285.40"/>
        <lane id="SC_2" index="2" allow="bicycle" speed="13.89" length="285.40" width="1.00" shape="307.15,0.00 307.15,285.40"/>
        <lane id="SC_3" index="3" allow="passenger" speed="13.89" length="285.40" shape="304.95,0.00 304.95,285.40"/>
        <lane id="SC_4" index="4" allow="passenger" speed="13.89" length="285.40" shape="301.65,0.00 301.65,285.40"/>
    </edge>
    <edge id="WC" from="W" to="C" priority="2">
        <lane id="WC_0" index="0" allow="pedestrian" speed="13.89" length="286.15" width="3.00" shape="0.00,289.15 286.15,289.15"/>
        <lane id="WC_1" index="1" disallow="all" speed="13.89" length="286.15" width="1.50" shape="0.00,291.50 286.15,291.50"/>
        <lane id="WC_2" index="2" allow="bicycle" speed="13.89" length="286.15" width="1.00" shape="0.00,292.85 286.15,292.85"/>
        <lane id="WC_3" index="3" allow="passenger" speed="13.89" length="286.15" shape="0.00,295.05 286.15,295.05"/>
        <lane id="WC_4" index="4" allow="passenger" speed="13.89" length="286.15" shape="0.00,298.35 286.15,298.35"/>
    </edge>

    <tlLogic id="C" type="static" programID="0" offset="0">
        <phase duration="26" state="rrrrrgGgGgrrrrrgGgGgGrGr"/>
        <phase duration="5" state="rrrrrgGgGgrrrrrgGgGgrrrr"/>
        <phase duration="4" state="rrrrryyyygrrrrryyyygrrrr"/>
        <phase duration="6" state="rrrrrrrrrGrrrrrrrrrGrrrr"/>
        <phase duration="4" state="rrrrrrrrryrrrrrrrrryrrrr"/>
        <phase duration="26" state="gGgGgrrrrrgGgGgrrrrrrGrG"/>
        <phase duration="5" state="gGgGgrrrrrgGgGgrrrrrrrrr"/>
        <phase duration="4" state="yyyygrrrrryyyygrrrrrrrrr"/>
        <phase duration="6" state="rrrrGrrrrrrrrrGrrrrrrrrr"/>
        <phase duration="4" state="rrrryrrrrrrrrryrrrrrrrrr"/>
    </tlLogic>

    <junction id="C" type="traffic_light" x="300.00" y="300.00" incLanes="NC_0 NC_1 NC_2 NC_3 NC_4 EC_0 EC_1 EC_2 EC_3 EC_4 SC_0 SC_1 SC_2 SC_3 SC_4 WC_0 WC_1 WC_2 WC_3 WC_4 :C_w1_0 :C_w2_0 :C_w3_0 :C_w0_0" intLanes=":C_0_0 :C_1_0 :C_20_0 :C_3_0 :C_21_0 :C_5_0 :C_6_0 :C_22_0 :C_8_0 :C_23_0 :C_10_0 :C_11_0 :C_24_0 :C_13_0 :C_25_0 :C_15_0 :C_16_0 :C_26_0 :C_18_0 :C_27_0 :C_c0_0 :C_c1_0 :C_c2_0 :C_c3_0" shape="287.65,313.10 312.35,313.10 313.85,310.85 313.85,286.90 312.35,285.40 287.65,285.40 286.15,287.65 286.15,311.60">
        <request index="0" response="100100000000000000000000" foes="100100000100000101000000" cont="0"/>
        <request index="1" response="010100000000000000000000" foes="010111111100001101000000" cont="0"/>
        <request index="2" response="100100000000000000000010" foes="100100000100000101000010" cont="1"/>
        <request index="3" response="010100000000000000000000" foes="010111111100001101000000" cont="0"/>
        <request index="4" response="001100000011110000000000" foes="001111010011111101000000" cont="1"/>
        <request index="5" response="001100000010100000000000" foes="001110000010100000000000" cont="0"/>
        <request index="6" response="101000000110100000011111" foes="101010000110100000011111" cont="0"/>
        <request index="7" response="001100000010100001000000" foes="001110000010100001000000" cont="1"/>
        <request index="8" response="101000000110100000011111" foes="101010000110100000011111" cont="0"/>
        <request index="9" response="011001111110100000011010" foes="011001111110100000011010" cont="1"/>
        <request index="10" response="011000000000000000000000" foes="011001010000000000010000" cont="0"/>
        <request index="11" response="010100000000000000000000" foes="010111010000001111110000" cont="0"/>
        <request index="12" response="011000000000100000000000" foes="011001010000100000010000" cont="1"/>
        <request index="13" response="010100000000000000000000" foes="010111010000001111110000" cont="0"/>
        <request index="14" response="110000000000000000001111" foes="110011010000001101001111" cont="1"/>
        <request index="15" response="110000000000000000001010" foes="110000000000001000001010" cont="0"/>
        <request index="16" response="101000000111110000011010" foes="101000000111111000011010" cont="0"/>
        <request index="17" response="110000010000000000001010" foes="110000010000001000001010" cont="1"/>
        <request index="18" response="101000000111110000011010" foes="101000000111111000011010" cont="0"/>
        <request index="19" response="100100000110100111111010" foes="100100000110100111111010" cont="1"/>
        <request index="20" response="000000000000000000000000" foes="000010000010100010111111" cont="0"/>
        <request index="21" response="000000000000000000000000" foes="000001010001011111110000" cont="0"/>
        <request index="22" response="000000000000000000000000" foes="000000101111111000001010" cont="0"/>
        <request index="23" response="000000000000000000000000" foes="000011111100000101000101" cont="0"/>
    </junction>
    <junction id="E" type="priority" x="600.00" y="300.00" incLanes="CE_0 CE_1 CE_2 CE_3 CE_4" intLanes=":E_0_0" shape="600.00,300.05 600.00,310.85 600.00,286.90 600.00,299.95">
        <request index="0" response="0" foes="0" cont="0"/>
    </junction>
    <junction id="N" type="priority" x="300.00" y="600.00" incLanes="CN_0 CN_1 CN_2 CN_3 CN_4" intLanes=":N_0_0" shape="299.95,600.00 287.65,600.00 312.35,600.00 300.05,600.00">
        <request index="0" response="0" foes="0" cont="0"/>
    </junction>
    <junction id="S" type="priority" x="300.00" y="0.00" incLanes="CS_0 CS_1 CS_2 CS_3 CS_4" intLanes=":S_0_0" shape="300.05,-0.00 312.35,-0.00 287.65,0.00 299.95,0.00">
        <request index="0" response="0" foes="0" cont="0"/>
    </junction>
    <junction id="W" type="priority" x="0.00" y="300.00" incLanes="CW_0 CW_1 CW_2 CW_3 CW_4" intLanes=":W_0_0" shape="-0.00,299.95 -0.00,287.65 0.00,311.60 0.00,300.05">
        <request index="0" response="0" foes="0" cont="0"/>
    </junction>

    <junction id=":C_20_0" type="internal" x="293.85" y="308.55" incLanes=":C_2_0 NC_2" intLanes=":C_1_0 :C_6_0 :C_8_0 :C_14_0 :C_c0_0 :C_c3_0"/>
    <junction id=":C_21_0" type="internal" x="303.35" y="301.40" incLanes=":C_4_0 SC_2 SC_3" intLanes=":C_6_0 :C_8_0 :C_9_0 :C_10_0 :C_11_0 :C_12_0 :C_13_0 :C_16_0 :C_18_0 :C_19_0 :C_c0_0 :C_c1_0"/>
    <junction id=":C_22_0" type="internal" x="308.70" y="306.15" incLanes=":C_7_0 EC_2" intLanes=":C_6_0 :C_11_0 :C_13_0 :C_19_0 :C_c0_0 :C_c1_0"/>
    <junction id=":C_23_0" type="internal" x="301.69" y="296.65" incLanes=":C_9_0 WC_2 WC_3" intLanes=":C_1_0 :C_3_0 :C_4_0 :C_11_0 :C_13_0 :C_14_0 :C_15_0 :C_16_0 :C_17_0 :C_18_0 :C_c1_0 :C_c2_0"/>
    <junction id=":C_24_0" type="internal" x="306.15" y="290.79" incLanes=":C_12_0 SC_2" intLanes=":C_4_0 :C_11_0 :C_16_0 :C_18_0 :C_c1_0 :C_c2_0"/>
    <junction id=":C_25_0" type="internal" x="296.65" y="298.30" incLanes=":C_14_0 NC_2 NC_3" intLanes=":C_0_0 :C_1_0 :C_2_0 :C_3_0 :C_6_0 :C_8_0 :C_9_0 :C_16_0 :C_18_0 :C_19_0 :C_c2_0 :C_c3_0"/>
    <junction id=":C_26_0" type="internal" x="290.96" y="293.85" incLanes=":C_17_0 WC_2" intLanes=":C_1_0 :C_3_0 :C_9_0 :C_16_0 :C_c2_0 :C_c3_0"/>
    <junction id=":C_27_0" type="internal" x="298.60" y="303.35" incLanes=":C_19_0 EC_2 EC_3" intLanes=":C_1_0 :C_3_0 :C_4_0 :C_5_0 :C_6_0 :C_7_0 :C_8_0 :C_11_0 :C_13_0 :C_14_0 :C_c0_0 :C_c3_0"/>

    <connection from="CE" to="EC" fromLane="4" toLane="4" via=":E_0_0" dir="t" state="M"/>
    <connection from="CN" to="NC" fromLane="4" toLane="4" via=":N_0_0" dir="t" state="M"/>
    <connection from="CS" to="SC" fromLane="4" toLane="4" via=":S_0_0" dir="t" state="M"/>
    <connection from="CW" to="WC" fromLane="4" toLane="4" via=":W_0_0" dir="t" state="M"/>
    <connection from="EC" to="CN" fromLane="2" toLane="2" via=":C_5_0" tl="C" linkIndex="5" dir="r" state="o"/>
    <connection from="EC" to="CW" fromLane="2" toLane="2" via=":C_6_0" tl="C" linkIndex="6" dir="s" state="o"/>
    <connection from="EC" to="CN" fromLane="3" toLane="3" via=":C_7_0" tl="C" linkIndex="7" dir="r" state="o"/>
    <connection from="EC" to="CW" fromLane="3" toLane="3" via=":C_8_0" tl="C" linkIndex="8" dir="s" state="o"/>
    <connection from="EC" to="CS" fromLane="4" toLane="4" via=":C_9_0" tl="C" linkIndex="9" dir="l" state="o"/>
    <connection from="NC" to="CW" fromLane="2" toLane="2" via=":C_0_0" tl="C" linkIndex="0" dir="r" state="o"/>
    <connection from="NC" to="CS" fromLane="2" toLane="2" via=":C_1_0" tl="C" linkIndex="1" dir="s" state="o"/>
    <connection from="NC" to="CW" fromLane="3" toLane="3" via=":C_2_0" tl="C" linkIndex="2" dir="r" state="o"/>
    <connection from="NC" to="CS" fromLane="3" toLane="3" via=":C_3_0" tl="C" linkIndex="3" dir="s" state="o"/>
    <connection from="NC" to="CE" fromLane="4" toLane="4" via=":C_4_0" tl="C" linkIndex="4" dir="l" state="o"/>
    <connection from="SC" to="CE" fromLane="2" toLane="2" via=":C_10_0" tl="C" linkIndex="10" dir="r" state="o"/>
    <connection from="SC" to="CN" fromLane="2" toLane="2" via=":C_11_0" tl="C" linkIndex="11" dir="s" state="o"/>
    <connection from="SC" to="CE" fromLane="3" toLane="3" via=":C_12_0" tl="C" linkIndex="12" dir="r" state="o"/>
    <connection from="SC" to="CN" fromLane="3" toLane="3" via=":C_13_0" tl="C" linkIndex="13" dir="s" state="o"/>
    <connection from="SC" to="CW" fromLane="4" toLane="4" via=":C_14_0" tl="C" linkIndex="14" dir="l" state="o"/>
    <connection from="WC" to="CS" fromLane="2" toLane="2" via=":C_15_0" tl="C" linkIndex="15" dir="r" state="o"/>
    <connection from="WC" to="CE" fromLane="2" toLane="2" via=":C_16_0" tl="C" linkIndex="16" dir="s" state="o"/>
    <connection from="WC" to="CS" fromLane="3" toLane="3" via=":C_17_0" tl="C" linkIndex="17" dir="r" state="o"/>
    <connection from="WC" to="CE" fromLane="3" toLane="3" via=":C_18_0" tl="C" linkIndex="18" dir="s" state="o"/>
    <connection from="WC" to="CN" fromLane="4" toLane="4" via=":C_19_0" tl="C" linkIndex="19" dir="l" state="o"/>

    <connection from=":C_0" to="CW" fromLane="0" toLane="2" dir="s" state="M"/>
    <connection from=":C_1" to="CS" fromLane="0" toLane="2" dir="s" state="M"/>
    <connection from=":C_2" to="CW" fromLane="0" toLane="3" via=":C_20_0" dir="s" state="m"/>
    <connection from=":C_20" to="CW" fromLane="0" toLane="3" dir="s" state="M"/>
    <connection from=":C_3" to="CS" fromLane="0" toLane="3" dir="s" state="M"/>
    <connection from=":C_4" to="CE" fromLane="0" toLane="4" via=":C_21_0" dir="s" state="m"/>
    <connection from=":C_21" to="CE" fromLane="0" toLane="4" dir="s" state="M"/>
    <connection from=":C_5" to="CN" fromLane="0" toLane="2" dir="s" state="M"/>
    <connection from=":C_6" to="CW" fromLane="0" toLane="2" dir="s" state="M"/>
    <connection from=":C_7" to="CN" fromLane="0" toLane="3" via=":C_22_0" dir="s" state="m"/>
    <connection from=":C_22" to="CN" fromLane="0" toLane="3" dir="s" state="M"/>
    <connection from=":C_8" to="CW" fromLane="0" toLane="3" dir="s" state="M"/>
    <connection from=":C_9" to="CS" fromLane="0" toLane="4" via=":C_23_0" dir="s" state="m"/>
    <connection from=":C_23" to="CS" fromLane="0" toLane="4" dir="s" state="M"/>
    <connection from=":C_10" to="CE" fromLane="0" toLane="2" dir="s" state="M"/>
    <connection from=":C_11" to="CN" fromLane="0" toLane="2" dir="s" state="M"/>
    <connection from=":C_12" to="CE" fromLane="0" toLane="3" via=":C_24_0" dir="s" state="m"/>
    <connection from=":C_24" to="CE" fromLane="0" toLane="3" dir="s" state="M"/>
    <connection from=":C_13" to="CN" fromLane="0" toLane="3" dir="s" state="M"/>
    <connection from=":C_14" to="CW" fromLane="0" toLane="4" via=":C_25_0" dir="s" state="m"/>
    <connection from=":C_25" to="CW" fromLane="0" toLane="4" dir="s" state="M"/>
    <connection from=":C_15" to="CS" fromLane="0" toLane="2" dir="s" state="M"/>
    <connection from=":C_16" to="CE" fromLane="0" toLane="2" dir="s" state="M"/>
    <connection from=":C_17" to="CS" fromLane="0" toLane="3" via=":C_26_0" dir="s" state="m"/>
    <connection from=":C_26" to="CS" fromLane="0" toLane="3" dir="s" state="M"/>
    <connection from=":C_18" to="CE" fromLane="0" toLane="3" dir="s" state="M"/>
    <connection from=":C_19" to="CN" fromLane="0" toLane="4" via=":C_27_0" dir="s" state="m"/>
    <connection from=":C_27" to="CN" fromLane="0" toLane="4" dir="s" state="M"/>
    <connection from=":E_0" to="EC" fromLane="0" toLane="4" dir="s" state="M"/>
    <connection from=":N_0" to="NC" fromLane="0" toLane="4" dir="s" state="M"/>
    <connection from=":S_0" to="SC" fromLane="0" toLane="4" dir="s" state="M"/>
    <connection from=":W_0" to="WC" fromLane="0" toLane="4" dir="s" state="M"/>

    <connection from=":C_c0" to=":C_w0" fromLane="0" toLane="0" dir="s" state="M"/>
    <connection from=":C_c1" to=":C_w1" fromLane="0" toLane="0" dir="s" state="M"/>
    <connection from=":C_c2" to=":C_w2" fromLane="0" toLane="0" dir="s" state="M"/>
    <connection from=":C_c3" to=":C_w3" fromLane="0" toLane="0" dir="s" state="M"/>
    <connection from=":C_w0" to=":C_c3" fromLane="0" toLane="0" tl="C" linkIndex="23" dir="s" state="M"/>
    <connection from=":C_w0" to="CW" fromLane="0" toLane="0" dir="s" state="M"/>
    <connection from="NC" to=":C_w0" fromLane="0" toLane="0" dir="s" state="M"/>
    <connection from=":C_w1" to=":C_c0" fromLane="0" toLane="0" tl="C" linkIndex="20" dir="s" state="M"/>
    <connection from=":C_w1" to="CN" fromLane="0" toLane="0" dir="s" state="M"/>
    <connection from="EC" to=":C_w1" fromLane="0" toLane="0" dir="s" state="M"/>
    <connection from=":C_w2" to=":C_c1" fromLane="0" toLane="0" tl="C" linkIndex="21" dir="s" state="M"/>
    <connection from=":C_w2" to="CE" fromLane="0" toLane="0" dir="s" state="M"/>
    <connection from="SC" to=":C_w2" fromLane="0" toLane="0" dir="s" state="M"/>
    <connection from=":C_w3" to=":C_c2" fromLane="0" toLane="0" tl="C" linkIndex="22" dir="s" state="M"/>
    <connection from=":C_w3" to="CS" fromLane="0" toLane="0" dir="s" state="M"/>
    <connection from="WC" to=":C_w3" fromLane="0" toLane="0" dir="s" state="M"/>
    <connection from=":E_w0" to="EC" fromLane="0" toLane="0" dir="s" state="M"/>
    <connection from="CE" to=":E_w0" fromLane="0" toLane="0" dir="s" state="M"/>
    <connection from=":N_w0" to="NC" fromLane="0" toLane="0" dir="s" state="M"/>
    <connection from="CN" to=":N_w0" fromLane="0" toLane="0" dir="s" state="M"/>
    <connection from=":S_w0" to="SC" fromLane="0" toLane="0" dir="s" state="M"/>
    <connection from="CS" to=":S_w0" fromLane="0" toLane="0" dir="s" state="M"/>
    <connection from=":W_w0" to="WC" fromLane="0" toLane="0" dir="s" state="M"/>
    <connection from="CW" to=":W_w0" fromLane="0" toLane="0" dir="s" state="M"/>
</net>
