<?xml version="1.0" encoding="UTF-8"?>

<!-- generated on Sat May  2 21:51:37 2015 by SUMO netconvert Version dev-SVN-r18323D
<?xml version="1.0" encoding="UTF-8"?>

<configuration xmlns:xsi="http://www.w3.org/2001/XMLSchema-instance" xsi:noNamespaceSchemaLocation="http://sumo.dlr.de/xsd/netconvertConfiguration.xsd">

    <input>
        <node-files value="01.plain.nod.xml"/>
        <edge-files value="02.plain.edg.xml"/>
        <connection-files value="03.plain.con.xml"/>
    </input>

    <output>
        <output-file value="04.plain.net.xml"/>
    </output>

</configuration>
-->

<net version="0.13" xmlns:xsi="http://www.w3.org/2001/XMLSchema-instance" xsi:noNamespaceSchemaLocation="http://sumo.dlr.de/xsd/net_file.xsd">

    <location netOffset="400.00,400.00" convBoundary="0.00,0.00,800.00,800.00" origBoundary="-400.00,-400.00,400.00,400.00" projParameter="!"/>

    <edge id=":C_0" function="internal">
        <lane id=":C_0_0" index="0" allow="bicycle" speed="30.00" length="5.41" width="1.00" shape="392.85,413.10 392.43,410.50 391.18,408.64 390.15,408.09"/>
    </edge>
    <edge id=":C_1" function="internal">
        <lane id=":C_1_0" index="0" allow="bicycle" speed="30.00" length="27.70" width="1.00" shape="392.85,413.10 392.85,404.88 392.85,399.25 392.85,393.62 392.85,385.40"/>
    </edge>
    <edge id=":C_2" function="internal">
        <lane id=":C_2_0" index="0" allow="passenger" speed="30.00" length="5.41" shape="395.05,413.10 394.49,409.53 393.85,408.55"/>
    </edge>
    <edge id=":C_3" function="internal">
        <lane id=":C_3_0" index="0" allow="passenger" speed="30.00" length="27.70" shape="395.05,413.10 395.05,404.88 395.05,399.25 395.05,393.62 395.05,385.40"/>
    </edge>
    <edge id=":C_4" function="internal">
        <lane id=":C_4_0" index="0" allow="passenger" speed="30.00" length="13.27" shape="398.35,413.10 399.32,406.65 402.23,402.04 403.35,401.40"/>
    </edge>
    <edge id=":C_20" function="internal">
        <lane id=":C_20_0" index="0" speed="30.00" length="4.17" width="1.00" shape="390.15,408.09 389.08,407.52 386.15,407.15"/>
    </edge>
    <edge id=":C_21" function="internal">
        <lane id=":C_21_0" index="0" speed="30.00" length="8.97" shape="393.85,408.55 392.83,406.99 390.04,405.46 386.15,404.95"/>
    </edge>
    <edge id=":C_22" function="internal">
        <lane id=":C_22_0" index="0" speed="30.00" length="11.13" shape="403.35,401.40 407.07,399.27 413.85,398.35"/>
    </edge>
    <edge id=":C_5" function="internal">
        <lane id=":C_5_0" index="0" allow="bicycle" speed="30.00" length="5.62" width="1.00" shape="413.85,407.15 410.92,407.52 408.82,408.64 408.51,409.10"/>
    </edge>
    <edge id=":C_6" function="internal">
        <lane id=":C_6_0" index="0" allow="bicycle" speed="30.00" length="27.70" width="1.00" shape="413.85,407.15 405.63,407.15 400.00,407.15 394.37,407.15 386.15,407.15"/>
    </edge>
    <edge id=":C_7" function="internal">
        <lane id=":C_7_0" index="0" allow="passenger" speed="30.00" length="5.62" shape="413.85,404.95 409.96,405.46 408.70,406.15"/>
    </edge>
    <edge id=":C_8" function="internal">
        <lane id=":C_8_0" index="0" allow="passenger" speed="30.00" length="27.70" shape="413.85,404.95 405.63,404.95 400.00,404.95 394.37,404.95 386.15,404.95"/>
    </edge>
    <edge id=":C_9" function="internal">
        <lane id=":C_9_0" index="0" allow="passenger" speed="30.00" length="13.66" shape="413.85,401.65 407.07,400.63 402.23,397.59 401.69,396.65"/>
    </edge>
    <edge id=":C_23" function="internal">
        <lane id=":C_23_0" index="0" speed="30.00" length="4.32" width="1.00" shape="408.51,409.10 407.57,410.50 407.15,413.10"/>
    </edge>
    <edge id=":C_24" function="internal">
        <lane id=":C_24_0" index="0" speed="30.00" length="8.39" shape="408.70,406.15 407.18,406.99 405.51,409.53 404.95,413.10"/>
    </edge>
    <edge id=":C_25" function="internal">
        <lane id=":C_25_0" index="0" speed="30.00" length="11.95" shape="401.69,396.65 399.32,392.51 398.35,385.40"/>
    </edge>
    <edge id=":C_10" function="internal">
        <lane id=":C_10_0" index="0" allow="bicycle" speed="30.00" length="6.38" width="1.00" shape="407.15,385.40 407.57,388.66 408.82,390.99 409.85,391.67"/>
    </edge>
    <edge id=":C_11" function="internal">
        <lane id=":C_11_0" index="0" allow="bicycle" speed="30.00" length="27.70" width="1.00" shape="407.15,385.40 407.15,393.62 407.15,399.25 407.15,404.88 407.15,413.10"/>
    </edge>
    <edge id=":C_12" function="internal">
        <lane id=":C_12_0" index="0" allow="passenger" speed="30.00" length="6.38" shape="404.95,385.40 405.51,389.62 406.15,390.79"/>
    </edge>
    <edge id=":C_13" function="internal">
        <lane id=":C_13_0" index="0" allow="passenger" speed="30.00" length="27.70" shape="404.95,385.40 404.95,393.62 404.95,399.25 404.95,404.88 404.95,413.10"/>
    </edge>
    <edge id=":C_14" function="internal">
        <lane id=":C_14_0" index="0" allow="passenger" speed="30.00" length="14.36" shape="401.65,385.40 400.68,392.51 397.77,397.59 396.65,398.30"/>
    </edge>
    <edge id=":C_26" function="internal">
        <lane id=":C_26_0" index="0" speed="30.00" length="4.25" width="1.00" shape="409.85,391.67 410.92,392.38 413.85,392.85"/>
    </edge>
    <edge id=":C_27" function="internal">
        <lane id=":C_27_0" index="0" speed="30.00" length="9.38" shape="406.15,390.79 407.17,392.64 409.96,394.45 413.85,395.05"/>
    </edge>
    <edge id=":C_28" function="internal">
        <lane id=":C_28_0" index="0" speed="30.00" length="11.25" shape="396.65,398.30 392.93,400.63 386.15,401.65"/>
    </edge>
    <edge id=":C_15" function="internal">
        <lane id=":C_15_0" index="0" allow="bicycle" speed="30.00" length="6.16" width="1.00" shape="386.15,392.85 389.08,392.38 391.17,390.99 392.03,389.40"/>
    </edge>
    <edge id=":C_16" function="internal">
        <lane id=":C_16_0" index="0" allow="bicycle" speed="30.00" length="27.70" width="1.00" shape="386.15,392.85 394.37,392.85 400.00,392.85 405.63,392.85 413.85,392.85"/>
    </edge>
    <edge id=":C_17" function="internal">
        <lane id=":C_17_0" index="0" allow="passenger" speed="30.00" length="6.16" shape="386.15,395.05 390.04,394.45 390.96,393.85"/>
    </edge>
    <edge id=":C_18" function="internal">
        <lane id=":C_18_0" index="0" allow="passenger" speed="30.00" length="27.70" shape="386.15,395.05 394.37,395.05 400.00,395.05 405.63,395.05 413.85,395.05"/>
    </edge>
    <edge id=":C_19" function="internal">
        <lane id=":C_19_0" index="0" allow="passenger" speed="30.00" length="13.97" shape="386.15,398.35 392.93,399.27 397.77,402.04 398.60,403.35"/>
    </edge>
    <edge id=":C_29" function="internal">
        <lane id=":C_29_0" index="0" speed="30.00" length="4.13" width="1.00" shape="392.03,389.40 392.43,388.66 392.85,385.40"/>
    </edge>
    <edge id=":C_30" function="internal">
        <lane id=":C_30_0" index="0" speed="30.00" length="9.93" shape="390.96,393.85 392.82,392.64 394.49,389.62 395.05,385.40"/>
    </edge>
    <edge id=":C_31" function="internal">
        <lane id=":C_31_0" index="0" speed="30.00" length="10.42" shape="398.60,403.35 400.68,406.65 401.65,413.10"/>
    </edge>
    <edge id=":C_c0" function="crossing" crossingEdges="CN NC">
        <lane id=":C_c0_0" index="0" allow="pedestrian" speed="1.00" length="15.30" width="4.00" shape="407.65,411.10 392.35,411.10"/>
    </edge>
    <edge id=":C_c1" function="crossing" crossingEdges="CE EC">
        <lane id=":C_c1_0" index="0" allow="pedestrian" speed="1.00" length="15.30" width="4.00" shape="411.85,392.35 411.85,407.65"/>
    </edge>
    <edge id=":C_c2" function="crossing" crossingEdges="CS SC">
        <lane id=":C_c2_0" index="0" allow="pedestrian" speed="1.00" length="15.30" width="4.00" shape="392.35,387.40 407.65,387.40"/>
    </edge>
    <edge id=":C_c3" function="crossing" crossingEdges="CW WC">
        <lane id=":C_c3_0" index="0" allow="pedestrian" speed="1.00" length="15.30" width="4.00" shape="388.15,407.65 388.15,392.35"/>
    </edge>
    <edge id=":C_w0" function="walkingarea">
        <lane id=":C_w0_0" index="0" allow="pedestrian" speed="1.00" length="4.74" width="4.00" shape="390.15,407.65 386.15,407.65 386.15,409.35 386.15,411.60 387.65,413.10 390.65,413.10 392.35,413.10 392.35,409.10"/>
    </edge>
    <edge id=":C_w1" function="walkingarea">
        <lane id=":C_w1_0" index="0" allow="pedestrian" speed="1.00" length="4.74" width="4.00" shape="407.65,409.10 407.65,413.10 409.35,413.10 412.35,413.10 413.85,410.85 413.85,409.35 413.85,407.65 409.85,407.65"/>
    </edge>
    <edge id=":C_w2" function="walkingarea">
        <lane id=":C_w2_0" index="0" allow="pedestrian" speed="1.00" length="5.37" width="4.00" shape="409.85,392.35 413.85,392.35 413.85,390.65 413.85,386.90 412.35,385.40 409.35,385.40 407.65,385.40 407.65,389.40"/>
    </edge>
    <edge id=":C_w3" function="walkingarea">
        <lane id=":C_w3_0" index="0" allow="pedestrian" speed="1.00" length="5.38" width="4.00" shape="392.35,389.40 392.35,385.40 390.65,385.40 387.65,385.40 386.15,387.65 386.15,390.65 386.15,392.35 390.15,392.35"/>
    </edge>
    <edge id=":E_0" function="internal">
        <lane id=":E_0_0" index="0" allow="passenger" speed="30.00" length="4.82" shape="800.00,398.35 801.24,399.17 801.65,400.00 801.24,400.82 800.00,401.65"/>
    </edge>
    <edge id=":E_w0" function="walkingarea">
        <lane id=":E_w0_0" index="0" allow="pedestrian" speed="1.00" length="21.33" width="3.75" shape="800.00,409.35 800.00,410.85 800.00,386.90 800.00,390.65"/>
    </edge>
    <edge id=":N_0" function="internal">
        <lane id=":N_0_0" index="0" allow="passenger" speed="30.00" length="4.82" shape="401.65,800.00 400.83,801.24 400.00,801.65 399.18,801.24 398.35,800.00"/>
    </edge>
    <edge id=":N_w0" function="walkingarea">
        <lane id=":N_w0_0" index="0" allow="pedestrian" speed="1.00" length="21.70" width="3.00" shape="390.65,800.00 387.65,800.00 412.35,800.00 409.35,800.00"/>
    </edge>
    <edge id=":S_0" function="internal">
        <lane id=":S_0_0" index="0" allow="passenger" speed="30.00" length="4.82" shape="398.35,0.00 399.17,-1.24 400.00,-1.65 400.82,-1.24 401.65,0.00"/>
    </edge>
    <edge id=":S_w0" function="walkingarea">
        <lane id=":S_w0_0" index="0" allow="pedestrian" speed="1.00" length="21.70" width="3.00" shape="409.35,0.00 412.35,0.00 387.65,0.00 390.65,0.00"/>
    </edge>
    <edge id=":W_0" function="internal">
        <lane id=":W_0_0" index="0" allow="passenger" speed="30.00" length="4.82" shape="0.00,401.65 -1.24,400.83 -1.65,400.00 -1.24,399.18 0.00,398.35"/>
    </edge>
    <edge id=":W_w0" function="walkingarea">
        <lane id=":W_w0_0" index="0" allow="pedestrian" speed="1.00" length="21.33" width="3.00" shape="0.00,390.65 0.00,387.65 0.00,411.60 0.00,409.35"/>
    </edge>

    <edge id="CE" from="C" to="E" priority="2">
        <lane id="CE_0" index="0" allow="pedestrian" speed="30.00" length="386.15" width="3.75" shape="413.85,388.77 800.00,388.77"/>
        <lane id="CE_1" index="1" disallow="all" speed="30.00" length="386.15" width="1.50" shape="413.85,391.50 800.00,391.50"/>
        <lane id="CE_2" index="2" allow="bicycle" speed="30.00" length="386.15" width="1.00" shape="413.85,392.85 800.00,392.85"/>
        <lane id="CE_3" index="3" allow="passenger" speed="30.00" length="386.15" shape="413.85,395.05 800.00,395.05"/>
        <lane id="CE_4" index="4" allow="passenger" speed="30.00" length="386.15" shape="413.85,398.35 800.00,398.35"/>
    </edge>
    <edge id="CN" from="C" to="N" priority="2">
        <lane id="CN_0" index="0" allow="pedestrian" speed="30.00" length="386.90" width="3.00" shape="410.85,413.10 410.85,800.00"/>
        <lane id="CN_1" index="1" disallow="all" speed="30.00" length="386.90" width="1.50" shape="408.50,413.10 408.50,800.00"/>
        <lane id="CN_2" index="2" allow="bicycle" speed="30.00" length="386.90" width="1.00" shape="407.15,413.10 407.15,800.00"/>
        <lane id="CN_3" index="3" allow="passenger" speed="30.00" length="386.90" shape="404.95,413.10 404.95,800.00"/>
        <lane id="CN_4" index="4" allow="passenger" speed="30.00" length="386.90" shape="401.65,413.10 401.65,800.00"/>
    </edge>
    <edge id="CS" from="C" to="S" priority="2">
        <lane id="CS_0" index="0" allow="pedestrian" speed="30.00" length="385.40" width="3.00" shape="389.15,385.40 389.15,0.00"/>
        <lane id="CS_1" index="1" disallow="all" speed="30.00" length="385.40" width="1.50" shape="391.50,385.40 391.50,0.00"/>
        <lane id="CS_2" index="2" allow="bicycle" speed="30.00" length="385.40" width="1.00" shape="392.85,385.40 392.85,0.00"/>
        <lane id="CS_3" index="3" allow="passenger" speed="30.00" length="385.40" shape="395.05,385.40 395.05,0.00"/>
        <lane id="CS_4" index="4" allow="passenger" speed="30.00" length="385.40" shape="398.35,385.40 398.35,0.00"/>
    </edge>
    <edge id="CW" from="C" to="W" priority="2">
        <lane id="CW_0" index="0" allow="pedestrian" speed="30.00" length="386.15" width="2.25" shape="386.15,410.48 0.00,410.48"/>
        <lane id="CW_1" index="1" disallow="all" speed="30.00" length="386.15" width="1.50" shape="386.15,408.50 0.00,408.50"/>
        <lane id="CW_2" index="2" allow="bicycle" speed="30.00" length="386.15" width="1.00" shape="386.15,407.15 0.00,407.15"/>
        <lane id="CW_3" index="3" allow="passenger" speed="30.00" length="386.15" shape="386.15,404.95 0.00,404.95"/>
        <lane id="CW_4" index="4" allow="passenger" speed="30.00" length="386.15" shape="386.15,401.65 0.00,401.65"/>
    </edge>
    <edge id="EC" from="E" to="C" priority="2">
        <lane id="EC_0" index="0" allow="pedestrian" speed="30.00" length="386.15" width="1.50" shape="800.00,410.10 413.85,410.10"/>
        <lane id="EC_1" index="1" disallow="all" speed="30.00" length="386.15" width="1.50" shape="800.00,408.50 413.85,408.50"/>
        <lane id="EC_2" index="2" allow="bicycle" speed="30.00" length="386.15" width="1.00" shape="800.00,407.15 413.85,407.15"/>
        <lane id="EC_3" index="3" allow="passenger" speed="30.00" length="386.15" shape="800.00,404.95 413.85,404.95"/>
        <lane id="EC_4" index="4" allow="passenger" speed="30.00" length="386.15" shape="800.00,401.65 413.85,401.65"/>
    </edge>
    <edge id="NC" from="N" to="C" priority="2">
        <lane id="NC_0" index="0" allow="pedestrian" speed="30.00" length="386.90" width="3.00" shape="389.15,800.00 389.15,413.10"/>
        <lane id="NC_1" index="1" disallow="all" speed="30.00" length="386.90" width="1.50" shape="391.50,800.00 391.50,413.10"/>
        <lane id="NC_2" index="2" allow="bicycle" speed="30.00" length="386.90" width="1.00" shape="392.85,800.00 392.85,413.10"/>
        <lane id="NC_3" index="3" allow="passenger" speed="30.00" length="386.90" shape="395.05,800.00 395.05,413.10"/>
        <lane id="NC_4" index="4" allow="passenger" speed="30.00" length="386.90" shape="398.35,800.00 398.35,413.10"/>
    </edge>
    <edge id="SC" from="S" to="C" priority="2">
        <lane id="SC_0" index="0" allow="pedestrian" speed="30.00" length="385.40" width="3.00" shape="410.85,0.00 410.85,385.40"/>
        <lane id="SC_1" index="1" disallow="all" speed="30.00" length="385.40" width="1.50" shape="408.50,0.00 408.50,385.40"/>
        <lane id="SC_2" index="2" allow="bicycle" speed="30.00" length="385.40" width="1.00" shape="407.15,0.00 407.15,385.40"/>
        <lane id="SC_3" index="3" allow="passenger" speed="30.00" length="385.40" shape="404.95,0.00 404.95,385.40"/>
        <lane id="SC_4" index="4" allow="passenger" speed="30.00" length="385.40" shape="401.65,0.00 401.65,385.40"/>
    </edge>
    <edge id="WC" from="W" to="C" priority="2">
        <lane id="WC_0" index="0" allow="pedestrian" speed="30.00" length="386.15" width="3.00" shape="0.00,389.15 386.15,389.15"/>
        <lane id="WC_1" index="1" disallow="all" speed="30.00" length="386.15" width="1.50" shape="0.00,391.50 386.15,391.50"/>
        <lane id="WC_2" index="2" allow="bicycle" speed="30.00" length="386.15" width="1.00" shape="0.00,392.85 386.15,392.85"/>
        <lane id="WC_3" index="3" allow="passenger" speed="30.00" length="386.15" shape="0.00,395.05 386.15,395.05"/>
        <lane id="WC_4" index="4" allow="passenger" speed="30.00" length="386.15" shape="0.00,398.35 386.15,398.35"/>
    </edge>

    <tlLogic id="C" type="static" programID="0" offset="0">
        <phase duration="26" state="gGgGgrrrrrgGgGgrrrrrrGrG"/>
        <phase duration="5" state="gGgGgrrrrrgGgGgrrrrrrrrr"/>
        <phase duration="10" state="yyyygrrrrryyyygrrrrrrrrr"/>
        <phase duration="6" state="rrrrGrrrrrrrrrGrrrrrrrrr"/>
        <phase duration="10" state="rrrryrrrrrrrrryrrrrrrrrr"/>
        <phase duration="26" state="rrrrrgGgGgrrrrrgGgGgGrGr"/>
        <phase duration="5" state="rrrrrgGgGgrrrrrgGgGgrrrr"/>
        <phase duration="10" state="rrrrryyyygrrrrryyyygrrrr"/>
        <phase duration="6" state="rrrrrrrrrGrrrrrrrrrGrrrr"/>
        <phase duration="10" state="rrrrrrrrryrrrrrrrrryrrrr"/>
    </tlLogic>

    <junction id="C" type="traffic_light" x="400.00" y="400.00" incLanes="NC_0 NC_1 NC_2 NC_3 NC_4 EC_0 EC_1 EC_2 EC_3 EC_4 SC_0 SC_1 SC_2 SC_3 SC_4 WC_0 WC_1 WC_2 WC_3 WC_4 :C_w1_0 :C_w2_0 :C_w3_0 :C_w0_0" intLanes=":C_20_0 :C_1_0 :C_21_0 :C_3_0 :C_22_0 :C_23_0 :C_6_0 :C_24_0 :C_8_0 :C_25_0 :C_26_0 :C_11_0 :C_27_0 :C_13_0 :C_28_0 :C_29_0 :C_16_0 :C_30_0 :C_18_0 :C_31_0 :C_c0_0 :C_c1_0 :C_c2_0 :C_c3_0" shape="387.65,413.10 412.35,413.10 413.85,410.85 413.85,386.90 412.35,385.40 387.65,385.40 386.15,387.65 386.15,411.60">
        <request index="0" response="100100000000000000000000" foes="100100000100000101000000" cont="1"/>
        <request index="1" response="010100000000000000000000" foes="010111111100001101000000" cont="0"/>
        <request index="2" response="100100000000000000000010" foes="100100000100000101000010" cont="1"/>
        <request index="3" response="010100000000000000000000" foes="010111111100001101000000" cont="0"/>
        <request index="4" response="001100000011110000000000" foes="001111010011111101000000" cont="1"/>
        <request index="5" response="001100000010100000000000" foes="001110000010100000000000" cont="1"/>
        <request index="6" response="101000000110100000011111" foes="101010000110100000011111" cont="0"/>
        <request index="7" response="001100000010100001000000" foes="001110000010100001000000" cont="1"/>
        <request index="8" response="101000000110100000011111" foes="101010000110100000011111" cont="0"/>
        <request index="9" response="011001111110100000011010" foes="011001111110100000011010" cont="1"/>
        <request index="10" response="011000000000000000000000" foes="011001010000000000010000" cont="1"/>
        <request index="11" response="010100000000000000000000" foes="010111010000001111110000" cont="0"/>
        <request index="12" response="011000000000100000000000" foes="011001010000100000010000" cont="1"/>
        <request index="13" response="010100000000000000000000" foes="010111010000001111110000" cont="0"/>
        <request index="14" response="110000000000000000001111" foes="110011010000001101001111" cont="1"/>
        <request index="15" response="110000000000000000001010" foes="110000000000001000001010" cont="1"/>
        <request index="16" response="101000000111110000011010" foes="101000000111111000011010" cont="0"/>
        <request index="17" response="110000010000000000001010" foes="110000010000001000001010" cont="1"/>
        <request index="18" response="101000000111110000011010" foes="101000000111111000011010" cont="0"/>
        <request index="19" response="100100000110100111111010" foes="100100000110100111111010" cont="1"/>
        <request index="20" response="000000000000000000000000" foes="000010000010100010111111" cont="0"/>
        <request index="21" response="000000000000000000000000" foes="000001010001011111110000" cont="0"/>
        <request index="22" response="000000000000000000000000" foes="000000101111111000001010" cont="0"/>
        <request index="23" response="000000000000000000000000" foes="000011111100000101000101" cont="0"/>
    </junction>
    <junction id="E" type="priority" x="800.00" y="400.00" incLanes="CE_0 CE_1 CE_2 CE_3 CE_4" intLanes=":E_0_0" shape="800.00,400.05 800.00,410.85 800.00,386.90 800.00,399.95">
        <request index="0" response="0" foes="0" cont="0"/>
    </junction>
    <junction id="N" type="priority" x="400.00" y="800.00" incLanes="CN_0 CN_1 CN_2 CN_3 CN_4" intLanes=":N_0_0" shape="399.95,800.00 387.65,800.00 412.35,800.00 400.05,800.00">
        <request index="0" response="0" foes="0" cont="0"/>
    </junction>
    <junction id="S" type="priority" x="400.00" y="0.00" incLanes="CS_0 CS_1 CS_2 CS_3 CS_4" intLanes=":S_0_0" shape="400.05,-0.00 412.35,-0.00 387.65,0.00 399.95,0.00">
        <request index="0" response="0" foes="0" cont="0"/>
    </junction>
    <junction id="W" type="priority" x="0.00" y="400.00" incLanes="CW_0 CW_1 CW_2 CW_3 CW_4" intLanes=":W_0_0" shape="-0.00,399.95 -0.00,387.65 0.00,411.60 0.00,400.05">
        <request index="0" response="0" foes="0" cont="0"/>
    </junction>

    <junction id=":C_20_0" type="internal" x="390.15" y="408.09" incLanes=":C_0_0" intLanes=":C_6_0 :C_8_0 :C_14_0 :C_c0_0 :C_c3_0"/>
    <junction id=":C_21_0" type="internal" x="393.85" y="408.55" incLanes=":C_2_0 NC_2" intLanes=":C_1_0 :C_6_0 :C_8_0 :C_14_0 :C_c0_0 :C_c3_0"/>
    <junction id=":C_22_0" type="internal" x="403.35" y="401.40" incLanes=":C_4_0 SC_2 SC_3" intLanes=":C_6_0 :C_8_0 :C_9_0 :C_10_0 :C_11_0 :C_12_0 :C_13_0 :C_16_0 :C_18_0 :C_19_0 :C_c0_0 :C_c1_0"/>
    <junction id=":C_23_0" type="internal" x="408.51" y="409.10" incLanes=":C_5_0" intLanes=":C_11_0 :C_13_0 :C_19_0 :C_c0_0 :C_c1_0"/>
    <junction id=":C_24_0" type="internal" x="408.70" y="406.15" incLanes=":C_7_0 EC_2" intLanes=":C_6_0 :C_11_0 :C_13_0 :C_19_0 :C_c0_0 :C_c1_0"/>
    <junction id=":C_25_0" type="internal" x="401.69" y="396.65" incLanes=":C_9_0 WC_2 WC_3" intLanes=":C_1_0 :C_3_0 :C_4_0 :C_11_0 :C_13_0 :C_14_0 :C_15_0 :C_16_0 :C_17_0 :C_18_0 :C_c1_0 :C_c2_0"/>
    <junction id=":C_26_0" type="internal" x="409.85" y="391.67" incLanes=":C_10_0" intLanes=":C_4_0 :C_16_0 :C_18_0 :C_c1_0 :C_c2_0"/>
    <junction id=":C_27_0" type="internal" x="406.15" y="390.79" incLanes=":C_12_0 SC_2" intLanes=":C_4_0 :C_11_0 :C_16_0 :C_18_0 :C_c1_0 :C_c2_0"/>
    <junction id=":C_28_0" type="internal" x="396.65" y="398.30" incLanes=":C_14_0 NC_2 NC_3" intLanes=":C_0_0 :C_1_0 :C_2_0 :C_3_0 :C_6_0 :C_8_0 :C_9_0 :C_16_0 :C_18_0 :C_19_0 :C_c2_0 :C_c3_0"/>
    <junction id=":C_29_0" type="internal" x="392.03" y="389.40" incLanes=":C_15_0" intLanes=":C_1_0 :C_3_0 :C_9_0 :C_c2_0 :C_c3_0"/>
    <junction id=":C_30_0" type="internal" x="390.96" y="393.85" incLanes=":C_17_0 WC_2" intLanes=":C_1_0 :C_3_0 :C_9_0 :C_16_0 :C_c2_0 :C_c3_0"/>
    <junction id=":C_31_0" type="internal" x="398.60" y="403.35" incLanes=":C_19_0 EC_2 EC_3" intLanes=":C_1_0 :C_3_0 :C_4_0 :C_5_0 :C_6_0 :C_7_0 :C_8_0 :C_11_0 :C_13_0 :C_14_0 :C_c0_0 :C_c3_0"/>

    <connection from="CE" to="EC" fromLane="4" toLane="4" via=":E_0_0" dir="t" state="M"/>
    <connection from="CN" to="NC" fromLane="4" toLane="4" via=":N_0_0" dir="t" state="M"/>
    <connection from="CS" to="SC" fromLane="4" toLane="4" via=":S_0_0" dir="t" state="M"/>
    <connection from="CW" to="WC" fromLane="4" toLane="4" via=":W_0_0" dir="t" state="M"/>
    <connection from="EC" to="CN" fromLane="2" toLane="2" via=":C_5_0" tl="C" linkIndex="5" dir="r" state="o"/>
    <connection from="EC" to="CW" fromLane="2" toLane="2" via=":C_6_0" tl="C" linkIndex="6" dir="s" state="o"/>
    <connection from="EC" to="CN" fromLane="3" toLane="3" via=":C_7_0" tl="C" linkIndex="7" dir="r" state="o"/>
    <connection from="EC" to="CW" fromLane="3" toLane="3" via=":C_8_0" tl="C" linkIndex="8" dir="s" state="o"/>
    <connection from="EC" to="CS" fromLane="4" toLane="4" via=":C_9_0" tl="C" linkIndex="9" dir="l" state="o"/>
    <connection from="NC" to="CW" fromLane="2" toLane="2" via=":C_0_0" tl="C" linkIndex="0" dir="r" state="o"/>
    <connection from="NC" to="CS" fromLane="2" toLane="2" via=":C_1_0" tl="C" linkIndex="1" dir="s" state="o"/>
    <connection from="NC" to="CW" fromLane="3" toLane="3" via=":C_2_0" tl="C" linkIndex="2" dir="r" state="o"/>
    <connection from="NC" to="CS" fromLane="3" toLane="3" via=":C_3_0" tl="C" linkIndex="3" dir="s" state="o"/>
    <connection from="NC" to="CE" fromLane="4" toLane="4" via=":C_4_0" tl="C" linkIndex="4" dir="l" state="o"/>
    <connection from="SC" to="CE" fromLane="2" toLane="2" via=":C_10_0" tl="C" linkIndex="10" dir="r" state="o"/>
    <connection from="SC" to="CN" fromLane="2" toLane="2" via=":C_11_0" tl="C" linkIndex="11" dir="s" state="o"/>
    <connection from="SC" to="CE" fromLane="3" toLane="3" via=":C_12_0" tl="C" linkIndex="12" dir="r" state="o"/>
    <connection from="SC" to="CN" fromLane="3" toLane="3" via=":C_13_0" tl="C" linkIndex="13" dir="s" state="o"/>
    <connection from="SC" to="CW" fromLane="4" toLane="4" via=":C_14_0" tl="C" linkIndex="14" dir="l" state="o"/>
    <connection from="WC" to="CS" fromLane="2" toLane="2" via=":C_15_0" tl="C" linkIndex="15" dir="r" state="o"/>
    <connection from="WC" to="CE" fromLane="2" toLane="2" via=":C_16_0" tl="C" linkIndex="16" dir="s" state="o"/>
    <connection from="WC" to="CS" fromLane="3" toLane="3" via=":C_17_0" tl="C" linkIndex="17" dir="r" state="o"/>
    <connection from="WC" to="CE" fromLane="3" toLane="3" via=":C_18_0" tl="C" linkIndex="18" dir="s" state="o"/>
    <connection from="WC" to="CN" fromLane="4" toLane="4" via=":C_19_0" tl="C" linkIndex="19" dir="l" state="o"/>

    <connection from=":C_0" to="CW" fromLane="0" toLane="2" via=":C_20_0" dir="s" state="m"/>
    <connection from=":C_20" to="CW" fromLane="0" toLane="2" dir="s" state="M"/>
    <connection from=":C_1" to="CS" fromLane="0" toLane="2" dir="s" state="M"/>
    <connection from=":C_2" to="CW" fromLane="0" toLane="3" via=":C_21_0" dir="s" state="m"/>
    <connection from=":C_21" to="CW" fromLane="0" toLane="3" dir="s" state="M"/>
    <connection from=":C_3" to="CS" fromLane="0" toLane="3" dir="s" state="M"/>
    <connection from=":C_4" to="CE" fromLane="0" toLane="4" via=":C_22_0" dir="s" state="m"/>
    <connection from=":C_22" to="CE" fromLane="0" toLane="4" dir="s" state="M"/>
    <connection from=":C_5" to="CN" fromLane="0" toLane="2" via=":C_23_0" dir="s" state="m"/>
    <connection from=":C_23" to="CN" fromLane="0" toLane="2" dir="s" state="M"/>
    <connection from=":C_6" to="CW" fromLane="0" toLane="2" dir="s" state="M"/>
    <connection from=":C_7" to="CN" fromLane="0" toLane="3" via=":C_24_0" dir="s" state="m"/>
    <connection from=":C_24" to="CN" fromLane="0" toLane="3" dir="s" state="M"/>
    <connection from=":C_8" to="CW" fromLane="0" toLane="3" dir="s" state="M"/>
    <connection from=":C_9" to="CS" fromLane="0" toLane="4" via=":C_25_0" dir="s" state="m"/>
    <connection from=":C_25" to="CS" fromLane="0" toLane="4" dir="s" state="M"/>
    <connection from=":C_10" to="CE" fromLane="0" toLane="2" via=":C_26_0" dir="s" state="m"/>
    <connection from=":C_26" to="CE" fromLane="0" toLane="2" dir="s" state="M"/>
    <connection from=":C_11" to="CN" fromLane="0" toLane="2" dir="s" state="M"/>
    <connection from=":C_12" to="CE" fromLane="0" toLane="3" via=":C_27_0" dir="s" state="m"/>
    <connection from=":C_27" to="CE" fromLane="0" toLane="3" dir="s" state="M"/>
    <connection from=":C_13" to="CN" fromLane="0" toLane="3" dir="s" state="M"/>
    <connection from=":C_14" to="CW" fromLane="0" toLane="4" via=":C_28_0" dir="s" state="m"/>
    <connection from=":C_28" to="CW" fromLane="0" toLane="4" dir="s" state="M"/>
    <connection from=":C_15" to="CS" fromLane="0" toLane="2" via=":C_29_0" dir="s" state="m"/>
    <connection from=":C_29" to="CS" fromLane="0" toLane="2" dir="s" state="M"/>
    <connection from=":C_16" to="CE" fromLane="0" toLane="2" dir="s" state="M"/>
    <connection from=":C_17" to="CS" fromLane="0" toLane="3" via=":C_30_0" dir="s" state="m"/>
    <connection from=":C_30" to="CS" fromLane="0" toLane="3" dir="s" state="M"/>
    <connection from=":C_18" to="CE" fromLane="0" toLane="3" dir="s" state="M"/>
    <connection from=":C_19" to="CN" fromLane="0" toLane="4" via=":C_31_0" dir="s" state="m"/>
    <connection from=":C_31" to="CN" fromLane="0" toLane="4" dir="s" state="M"/>
    <connection from=":E_0" to="EC" fromLane="0" toLane="4" dir="s" state="M"/>
    <connection from=":N_0" to="NC" fromLane="0" toLane="4" dir="s" state="M"/>
    <connection from=":S_0" to="SC" fromLane="0" toLane="4" dir="s" state="M"/>
    <connection from=":W_0" to="WC" fromLane="0" toLane="4" dir="s" state="M"/>

    <connection from=":C_c0" to=":C_w0" fromLane="0" toLane="0" dir="s" state="M"/>
    <connection from=":C_c1" to=":C_w1" fromLane="0" toLane="0" dir="s" state="M"/>
    <connection from=":C_c2" to=":C_w2" fromLane="0" toLane="0" dir="s" state="M"/>
    <connection from=":C_c3" to=":C_w3" fromLane="0" toLane="0" dir="s" state="M"/>
    <connection from=":C_w0" to=":C_c3" fromLane="0" toLane="0" tl="C" linkIndex="23" dir="s" state="M"/>
    <connection from=":C_w0" to="CW" fromLane="0" toLane="0" dir="s" state="M"/>
    <connection from="NC" to=":C_w0" fromLane="0" toLane="0" dir="s" state="M"/>
    <connection from=":C_w1" to=":C_c0" fromLane="0" toLane="0" tl="C" linkIndex="20" dir="s" state="M"/>
    <connection from=":C_w1" to="CN" fromLane="0" toLane="0" dir="s" state="M"/>
    <connection from="EC" to=":C_w1" fromLane="0" toLane="0" dir="s" state="M"/>
    <connection from=":C_w2" to=":C_c1" fromLane="0" toLane="0" tl="C" linkIndex="21" dir="s" state="M"/>
    <connection from=":C_w2" to="CE" fromLane="0" toLane="0" dir="s" state="M"/>
    <connection from="SC" to=":C_w2" fromLane="0" toLane="0" dir="s" state="M"/>