<?xml version="1.0" encoding="UTF-8"?>
<routes>

  <!-- Krauss Model -->
  <vType id="TypeManual" length="5.0" minGap="2.0" maxSpeed="30.0" vClass="passenger">
      <carFollowing-Krauss accel="3.0" decel="5.0" sigma="0" tau="1.64" />
  </vType> 
  
  <!-- Bicycle -->
  <vType id="TypeBicycle" length="2.0" vClass="bicycle">
  </vType>
    
  <!-- Pedestrian -->
  <vType id="TypePedestrian" vClass="pedestrian" width="0.7" length="0.35" minGap="0.2" maxSpeed="1.8" guiShape="pedestrian" color="red">
  </vType>
  
  <!-- North inbound -->
  <route id="route1" edges="NC CS" /> 
  <route id="route2" edges="NC CW" /> 
  <route id="route3" edges="NC CE" />  

  <!-- South inbound -->
  <route id="route4" edges="SC CN" />
  <route id="route5" edges="SC CE" />
  <route id="route6" edges="SC CW" />
  
  <!-- West inbound -->
  <route id="route7" edges="WC CE" />  
  <route id="route8" edges="WC CS" />  
  <route id="route9" edges="WC CN" /> 
  
  <!-- East inbound -->
  <route id="route10" edges="EC CW" />  
  <route id="route11" edges="EC CN" />  
  <route id="route12" edges="EC CS" />  
  
  
  <!-- increasing traffic demand -->
  
  <flow id="route1a" begin="0" end="200" vehsPerHour="100" type="TypeManual" route="route1" />
  <flow id="route2a" begin="0" end="200" vehsPerHour="100" type="TypeManual" route="route3" />
  <flow id="route3a" begin="0" end="200" vehsPerHour="100" type="TypeManual" route="route4" />
  <flow id="route4a" begin="0" end="200" vehsPerHour="100" type="TypeManual" route="route6" />  
  <flow id="route5a" begin="0" end="200" vehsPerHour="100" type="TypeManual" route="route7" />
  <flow id="route6a" begin="0" end="200" vehsPerHour="100" type="TypeManual" route="route9" />  
  <flow id="route7a" begin="0" end="200" vehsPerHour="100" type="TypeManual" route="route10" />
  <flow id="route8a" begin="0" end="200" vehsPerHour="100" type="TypeManual" route="route12" />
  
  <flow id="route1b" begin="200" end="400" vehsPerHour="500" type="TypeManual" route="route1" />
  <flow id="route2b" begin="200" end="400" vehsPerHour="500" type="TypeManual" route="route3" />
  <flow id="route3b" begin="200" end="400" vehsPerHour="500" type="TypeManual" route="route4" />
  <flow id="route4b" begin="200" end="400" vehsPerHour="500" type="TypeManual" route="route6" />  
  <flow id="route5b" begin="200" end="400" vehsPerHour="500" type="TypeManual" route="route7" />
  <flow id="route6b" begin="200" end="400" vehsPerHour="500" type="TypeManual" route="route9" />  
  <flow id="route7b" begin="200" end="400" vehsPerHour="500" type="TypeManual" route="route10" />
  <flow id="route8b" begin="200" end="400" vehsPerHour="500" type="TypeManual" route="route12" />
  
  <flow id="route1c" begin="400" end="600" vehsPerHour="700" type="TypeManual" route="route1" />
  <flow id="route2c" begin="400" end="600" vehsPerHour="700" type="TypeManual" route="route3" />
  <flow id="route3c" begin="400" end="600" vehsPerHour="700" type="TypeManual" route="route4" />
  <flow id="route4c" begin="400" end="600" vehsPerHour="700" type="TypeManual" route="route6" />  
  <flow id="route5c" begin="400" end="600" vehsPerHour="700" type="TypeManual" route="route7" />
  <flow id="route6c" begin="400" end="600" vehsPerHour="700" type="TypeManual" route="route9" />  
  <flow id="route7c" begin="400" end="600" vehsPerHour="700" type="TypeManual" route="route10" />
  <flow id="route8c" begin="400" end="600" vehsPerHour="700" type="TypeManual" route="route12" />
  
  <flow id="route1d" begin="600" end="800" vehsPerHour="1000" type="TypeManual" route="route1" />
  <flow id="route2d" begin="600" end="800" vehsPerHour="1000" type="TypeManual" route="route3" />
  <flow id="route3d" begin="600" end="800" vehsPerHour="1000" type="TypeManual" route="route4" />
  <flow id="route4d" begin="600" end="800" vehsPerHour="1000" type="TypeManual" route="route6" />  
  <flow id="route5d" begin="600" end="800" vehsPerHour="1000" type="TypeManual" route="route7" />
  <flow id="route6d" begin="600" end="800" vehsPerHour="1000" type="TypeManual" route="route9" />  
  <flow id="route7d" begin="600" end="800" vehsPerHour="1000" type="TypeManual" route="route10" />
  <flow id="route8d" begin="600" end="800" vehsPerHour="1000" type="TypeManual" route="route12" />

</routes>
