<?xml version="1.0" encoding="UTF-8"?>
<routes>

  <!-- Krauss Model -->
  <vType id="TypeManual" length="5.0" minGap="2.0" maxSpeed="30.0" vClass="passenger">
      <carFollowing-Krauss accel="3.0" decel="5.0" sigma="0" tau="1.64" />
  </vType> 
  
  <!-- Bicycle -->
  <vType id="TypeBicycle" length="2.0" vClass="bicycle">
  </vType>
    
  <!-- Pedestrian -->
  <vType id="TypePedestrian" vClass="pedestrian" width="0.7" length="0.35" minGap="0.2" maxSpeed="1.8" guiShape="pedestrian" color="red">
  </vType>
  
  <!-- North inbound -->
  <route id="route1" edges="NC CS" /> 
  <route id="route2" edges="NC CW" /> 
  <route id="route3" edges="NC CE" />  

  <!-- South inbound -->
  <route id="route4" edges="SC CN" />
  <route id="route5" edges="SC CE" />
  <route id="route6" edges="SC CW" />
  
  <!-- West inbound -->
  <route id="route7" edges="WC CE" />  
  <route id="route8" edges="WC CS" />  
  <route id="route9" edges="WC CN" /> 
  
  <!-- East inbound -->
  <route id="route10" edges="EC CW" />  
  <route id="route11" edges="EC CN" />  
  <route id="route12" edges="EC CS" /> 
  
  
  <flow id="route1" begin="0" end="50" vehsPerHour="700" type="TypeManual" route="route1" />
  <flow id="route2" begin="0" end="50" vehsPerHour="700" type="TypeManual" route="route5" />
  <flow id="route3" begin="0" end="50" vehsPerHour="700" type="TypeManual" route="route10" />


</routes>
