<?xml version="1.0" encoding="UTF-8"?>
<routes>

  <!-- Krauss Model -->
  <vType id="TypeManual" length="5.0" minGap="2.0" maxSpeed="30.0" vClass="passenger">
      <carFollowing-Krauss accel="3.0" decel="5.0" sigma="0" tau="1.64" />
  </vType> 
  
  <!-- Bicycle -->
  <vType id="TypeBicycle" length="2.0" vClass="bicycle">
  </vType>
    
  <!-- Pedestrian -->
  <vType id="TypePedestrian" vClass="pedestrian" width="0.7" length="0.35" minGap="0.2" maxSpeed="1.8" guiShape="pedestrian" color="red">
  </vType>
  
  <!-- North inbound -->
  <route id="movement2" edges="NC CS" />      <!-- Through -->
  <route id="route2" edges="NC CW" />         <!-- Right -->
  <route id="movement5" edges="NC CE" />      <!-- Left -->

  <!-- South inbound -->
  <route id="movement6" edges="SC CN" />     <!-- Through -->
  <route id="route5" edges="SC CE" />        <!-- Right -->
  <route id="movement1" edges="SC CW" />     <!-- Left -->
  
  <!-- West inbound -->
  <route id="movement8" edges="WC CE" />     <!-- Through -->
  <route id="route8" edges="WC CS" />        <!-- Right -->
  <route id="movement3" edges="WC CN" />     <!-- Left -->
  
  <!-- East inbound -->
  <route id="movement4" edges="EC CW" />     <!-- Through -->
  <route id="route11" edges="EC CN" />       <!-- Right -->
  <route id="movement7" edges="EC CS" />     <!-- Left --> 

</routes>
