<?xml version="1.0" encoding="UTF-8"?>

<additional>
    <tlLogic id="C" type="static" programID="original" offset="-10">
        <phase duration="31" state="rrrrrrgGgGGgrrrrrrgGgGGgGrGrGrGr"/>
        <phase duration="4" state="rrrrrryyyyygrrrrrryyyyygrrrrGrGr"/>
        <phase duration="6" state="rrrrrrrrrrrgrrrrrrrrrrrgrrrrGrGr"/>
        <phase duration="4" state="rrrrrrrrrrryrrrrrrrrrrryrrrrGrGr"/>
        <phase duration="31" state="gGgGGgrrrrrrgGgGGgrrrrrrrGrGrGrG"/>
        <phase duration="4" state="yyyyygrrrrrryyyyygrrrrrrrrrrrGrG"/>
        <phase duration="6" state="rrrrrgrrrrrrrrrrrgrrrrrrrrrrrGrG"/>
        <phase duration="4" state="rrrrryrrrrrrrrrrryrrrrrrrrrrrGrG"/>
    </tlLogic>
    
    <tlLogic id="C" type="static" programID="simpler" offset="-1">
        <phase duration="31" state="rrrrrrgGgGGgrrrrrrgGgGGgGrGrGrGr"/>
        <phase duration="4" state="rrrrrryyyyyyrrrrrryyyyyyrrrrGrGr"/>
        <phase duration="1" state="rrrrrrrrrrrrrrrrrrrrrrrrrrrrrrrr"/>
        <phase duration="31" state="gGgGGgrrrrrrgGgGGgrrrrrrrGrGrGrG"/>
        <phase duration="4" state="yyyyyyrrrrrryyyyyyrrrrrrrrrrrGrG"/>
        <phase duration="1" state="rrrrrrrrrrrrrrrrrrrrrrrrrrrrrGrG"/>
    </tlLogic>
</additional>