<?xml version="1.0" encoding="UTF-8"?>

<!-- generated on Mon Jun  5 13:43:48 2017 by SUMO netconvert Version dev-SVN-r22948
<?xml version="1.0" encoding="UTF-8"?>

<configuration xmlns:xsi="http://www.w3.org/2001/XMLSchema-instance" xsi:noNamespaceSchemaLocation="http://sumo.dlr.de/xsd/netconvertConfiguration.xsd">

    <input>
        <node-files value="1hello.nod.xml"/>
        <edge-files value="2hello.edg.xml"/>
    </input>

    <output>
        <output-file value="3hello.net.xml"/>
    </output>

    <processing>
        <no-internal-links value="true"/>
    </processing>

</configuration>
-->

<net version="0.27" xmlns:xsi="http://www.w3.org/2001/XMLSchema-instance" xsi:noNamespaceSchemaLocation="http://sumo.dlr.de/xsd/net_file.xsd">

    <location netOffset="0.00,0.00" convBoundary="0.00,0.00,5000.00,0.00" origBoundary="0.00,0.00,5000.00,0.00" projParameter="!"/>

    <edge id="1to2" from="1" to="2" priority="-1">
        <lane id="1to2_0" index="0" speed="30.00" length="5000.00" shape="0.00,-1.65 5000.00,-1.65"/>
    </edge>

    <junction id="1" type="unregulated" x="0.00" y="0.00" incLanes="" intLanes="" shape="0.00,-0.05 0.00,-3.25"/>
    <junction id="2" type="unregulated" x="5000.00" y="0.00" incLanes="1to2_0" intLanes="" shape="5000.00,-3.25 5000.00,-0.05"/>

</net>
