<?xml version="1.0" encoding="UTF-8"?>

<!-- generated on Thu Feb 13 14:45:06 2014 by SUMO netconvert Version dev-SVN-r15307
<?xml version="1.0" encoding="UTF-8"?>

<configuration xmlns:xsi="http://www.w3.org/2001/XMLSchema-instance" xsi:noNamespaceSchemaLocation="http://sumo-sim.org/xsd/netconvertConfiguration.xsd">

    <input>
        <node-files value="hello.nod.xml"/>
        <edge-files value="hello.edg.xml"/>
    </input>

    <output>
        <output-file value="hello.net.xml"/>
    </output>

    <processing>
        <no-internal-links value="true"/>
    </processing>

</configuration>
-->

<net version="0.13" xmlns:xsi="http://www.w3.org/2001/XMLSchema-instance" xsi:noNamespaceSchemaLocation="http://sumo-sim.org/xsd/net_file.xsd">

    <location netOffset="16000.00,0.00" convBoundary="0.00,0.00,32000.00,0.00" origBoundary="-16000.00,0.00,16000.00,0.00" projParameter="!"/>

    <edge id="1to2" from="1" to="2" priority="-1">
        <lane id="1to2_0" index="0" speed="30.00" length="32000.00" shape="0.00,-1.65 32000.00,-1.65"/>
    </edge>
    <edge id="2to3" from="2" to="3" priority="-1">
        <lane id="2to3_0" index="0" speed="5.00" length="14500.00" shape="32000.00,1.65 17500.00,1.65"/>
    </edge>

    <junction id="1" type="unregulated" x="0.00" y="0.00" incLanes="" intLanes="" shape="-0.00,-0.05 -0.00,-3.25"/>
    <junction id="2" type="priority" x="32000.00" y="0.00" incLanes="1to2_0" intLanes="" shape="32000.00,0.05 32000.00,3.25 32000.00,-3.25 32000.00,-0.05">
        <request index="0" response="0" foes="0"/>
    </junction>
    <junction id="3" type="unregulated" x="17500.00" y="0.00" incLanes="2to3_0" intLanes="" shape="17500.00,3.25 17500.00,0.05"/>

    <connection from="1to2" to="2to3" fromLane="0" toLane="0" dir="t" state="M"/>

</net>
