<?xml version="1.0" encoding="UTF-8"?>

<nodes>

    <node id="C" x="0.00" y="0.00" type="traffic_light" tl="C"/>
    <node id="E" x="900.00" y="0.00" type="priority"/>
    <node id="N" x="0.00" y="900.00" type="dead_end"/>
    <node id="S" x="0.00" y="-900.00" type="priority"/>
    <node id="W" x="-900.00" y="0.00" type="dead_end"/>

</nodes>
