
<nodes>

    <node id="1" x="-200.0" y="0.0" />
    <node id="2" x="0.0" y="0.0" />
    <node id="3" x="+200.0" y="0.0" />
    
</nodes>
