<routes>

  <!-- passenger vehicle type -->
  <vType id="passenger" length="5.0" minGap="2.0" maxSpeed="30.0" vClass="passenger">
      <carFollowing-Krauss accel="3.0" decel="5.0" sigma="0" tau="1.64" />
  </vType> 
  
  <!-- bus vehicle type -->
  <vType id="bus" length="10.0" minGap="4.0" maxSpeed="15.0" vClass="bus">
      <carFollowing-Krauss accel="2.0" decel="3.0" sigma="0" tau="2.0" />
  </vType>  
  
  <!-- route definition -->
  <route id="route0" edges="street1 street2" /> 

  <flow id="flow1" type="passenger" color="1,1,0" route="route0" begin="0" probability="0.3" number="500" />

</routes>


