<?xml version="1.0" encoding="UTF-8"?>
<routes>
 
  <vType id="TypeManual" length="5.0" minGap="2.0" maxSpeed="30.0" vClass="passenger">
      <carFollowing-Krauss accel="3.0" decel="5.0" sigma="0" tau="1.64" />
  </vType>
  
  <vType id="TypeACC" length="5.0" minGap="2.0" maxSpeed="30.0" vClass="passenger">
      <carFollowing-ACC accel="3.0" decel="5.0" T_g="1.54" ControllerDelay="0.5" ComfAccel="2.0" ComfDecel="3.0" K_sc="0.4" K_v="1.0" K_g="5.0" V_int="30.0" />
  </vType>

  <route id="route1" edges="1to2" />  

</routes>
