
<tlLogics>

    <tlLogic id="C" type="static" programID="0" offset="0">
        <phase duration="31" state="GGGGr"/>
        <phase duration="4" state="yyyyr"/>
        <phase duration="26" state="rrrrG"/>
        <phase duration="9" state="rrrrr"/>
    </tlLogic>

    <connection from="EC" to="CW" fromLane="0" toLane="0" tl="C" linkIndex="0"/>
    <connection from="EC" to="CW" fromLane="1" toLane="1" tl="C" linkIndex="1"/>
    <connection from="WC" to="CE" fromLane="0" toLane="0" tl="C" linkIndex="2"/>
    <connection from="WC" to="CE" fromLane="1" toLane="1" tl="C" linkIndex="3"/>
    
</tlLogics>
