<?xml version="1.0" encoding="UTF-8"?>
<edges xmlns:xsi="http://www.w3.org/2001/XMLSchema-instance">

  <edge id="1to3" from="1" to="3" numLanes="3" >
      <lane index="0" speed="30" disallow="pedestrian bicycle" />
      <lane index="1" allow="bicycle" />
      <lane index="2" allow="pedestrian" width="1" />      
  </edge>

  <edge id="3to5" from="3" to="5" numLanes="3" >
      <lane index="0" speed="30" disallow="pedestrian bicycle" />
      <lane index="1" allow="bicycle" />
      <lane index="2" allow="pedestrian" width="1" /> 
  </edge>

  <edge id="2to3" from="2" to="3" numLanes="3" >
      <lane index="0" speed="30" disallow="pedestrian bicycle" />
      <lane index="1" allow="bicycle" />
      <lane index="2" allow="pedestrian" width="1" /> 
  </edge>

  <edge id="3to4" from="3" to="4" numLanes="3" >
      <lane index="0" speed="30" disallow="pedestrian bicycle" />
      <lane index="1" allow="bicycle" />
      <lane index="2" allow="pedestrian" width="1" /> 
  </edge>

</edges>
