<?xml version="1.0" encoding="UTF-8"?>

<edges>

  <edge id="1to2" from="1" to="2" >
      <lane index="0" speed="28" />
  </edge>

  <edge id="2to3" from="2" to="3" >
      <lane index="0" speed="5" />
  </edge>

  <edge id="3to4" from="3" to="4" >
      <lane index="0" speed="28" />
  </edge>

  <edge id="4to6" from="4" to="6" >
      <lane index="0" speed="28" />
  </edge>

  <edge id="3to5" from="3" to="5" >
      <lane index="0" speed="28" />
  </edge>

</edges>
