<?xml version="1.0" encoding="UTF-8"?>

<routes>
  
  <vType id="Type1" length="5.0" minGap="2.0" maxSpeed="28.0" vClass="passenger">
      <carFollowing-OptimalSpeed accel="100" decel="100" sigma="0" tau="1.64" sensitivity="1.21" />
  </vType>

  <vType id="Type2" length="5.0" minGap="2.0" maxSpeed="28.0" vClass="passenger">
      <carFollowing-OptimalSpeed accel="100" decel="100" sigma="0" tau="1.4" sensitivity="2" />
  </vType>

  <vType id="Type3" length="5.0" minGap="2.0" maxSpeed="28.0" vClass="passenger">
      <carFollowing-OptimalSpeed accel="100" decel="100" sigma="0" tau="0.7" sensitivity="4" />
  </vType>

  <route id="route1" edges="1to2 2to3 3to4 4to6" />

  <vehicle id="veh0" type="Type1" route="route1" depart="1" />
  <vehicle id="veh1" type="Type1" route="route1" depart="5" />
  <vehicle id="veh2" type="Type1" route="route1" depart="10" />
  <vehicle id="veh3" type="Type1" route="route1" depart="15" />

</routes>
