<?xml version="1.0" encoding="UTF-8"?>
<routes xmlns:xsi="http://www.w3.org/2001/XMLSchema-instance" xsi:noNamespaceSchemaLocation="http://sumo.sf.net/xsd/routes_file.xsd">

  <vType id="TypeManual" length="5.0" minGap="0.5" maxSpeed="30.0" >
      <carFollowing-KraussFixed MaxAccel="3.0" MaxDecel="5.0" T_g="1.64" sigma="0" tau="1" />
  </vType>

  <vType id="TypeACC" length="5.0" minGap="0.5" maxSpeed="30.0" >
      <carFollowing-ACC MaxAccel="3.0" MaxDecel="5.0" T_g="1.4" tau="0.5" ComfAccel="2.0" ComfDecel="3.0" K_sc="0.4" K_v="0.303" K_g="0.606" V_int="30.0" />
  </vType>

  <vType id="TypeCACC" length="5.0" minGap="0.5" maxSpeed="30.0" >
      <carFollowing-CACC MaxAccel="3.0" MaxDecel="5.0" T_g="0.7" tau="0.5" ComfAccel="2.0" ComfDecel="3.0" K_sc="0.4" K_v="0.526" K_g="1.052" K_a="0.131" V_int="30.0" />
  </vType>

  <route id="route1" edges="1to2 2to3 3to4 4to6" />

  <vehicle id="CACC1" type="TypeCACC" route="route1" depart="1" />
  <vehicle id="CACC2" type="TypeCACC" route="route1" depart="3" />
  <vehicle id="CACC3" type="TypeCACC" route="route1" depart="5" />
  <vehicle id="CACC4" type="TypeCACC" route="route1" depart="7" />
  <vehicle id="CACC5" type="TypeCACC" route="route1" depart="9" />
  <vehicle id="CACC6" type="TypeCACC" route="route1" depart="11" />

</routes>
