<?xml version="1.0" encoding="UTF-8"?>

<!-- generated on Mon Dec  9 11:40:43 2013 by SUMO netconvert Version dev-SVN-r15211
<?xml version="1.0" encoding="UTF-8"?>

<configuration xmlns:xsi="http://www.w3.org/2001/XMLSchema-instance" xsi:noNamespaceSchemaLocation="http://sumo-sim.org/xsd/netconvertConfiguration.xsd">

    <input>
        <node-files value="hello.nod.xml"/>
        <edge-files value="hello.edg.xml"/>
    </input>

    <output>
        <output-file value="hello.net.xml"/>
    </output>

    <processing>
        <no-internal-links value="true"/>
    </processing>

</configuration>
-->

<net version="0.13" xmlns:xsi="http://www.w3.org/2001/XMLSchema-instance" xsi:noNamespaceSchemaLocation="http://sumo-sim.org/xsd/net_file.xsd">

    <location netOffset="8000.00,0.00" convBoundary="0.00,0.00,16000.00,1000.00" origBoundary="-8000.00,0.00,8000.00,1000.00" projParameter="!"/>

    <edge id="1to2" from="1" to="2" priority="-1">
        <lane id="1to2_0" index="0" speed="30.00" length="16000.00" shape="0.00,-1.65 16000.00,-1.65"/>
    </edge>
    <edge id="2to3" from="2" to="3" priority="-1">
        <lane id="2to3_0" index="0" speed="5.00" length="6503.99" shape="16000.00,1.65 9504.75,1.65"/>
    </edge>
    <edge id="3to4" from="3" to="4" priority="-1">
        <lane id="3to4_0" index="0" speed="30.00" length="503.99" shape="9501.65,4.75 9501.65,500.00"/>
    </edge>
    <edge id="3to5" from="3" to="5" priority="-1">
        <lane id="3to5_0" index="0" speed="30.00" length="503.99" shape="9504.75,-1.65 10000.00,-1.65"/>
    </edge>
    <edge id="4to6" from="4" to="6" priority="-1">
        <lane id="4to6_0" index="0" speed="30.00" length="500.00" shape="9501.65,500.00 9501.65,1000.00"/>
    </edge>

    <tlLogic id="3" type="static" programID="0" offset="0">
        <phase duration="31" state="GG"/>
        <phase duration="4" state="yy"/>
    </tlLogic>

    <junction id="1" type="unregulated" x="0.00" y="0.00" incLanes="" intLanes="" shape="-0.00,-0.05 -0.00,-3.25"/>
    <junction id="2" type="priority" x="16000.00" y="0.00" incLanes="1to2_0" intLanes="" shape="16000.00,0.05 16000.00,3.25 16000.00,-3.25 16000.00,-0.05">
        <request index="0" response="0" foes="0"/>
    </junction>
    <junction id="3" type="traffic_light" x="9500.00" y="0.00" incLanes="2to3_0" intLanes="" shape="9500.05,4.75 9503.25,4.75 9504.75,3.25 9504.75,-3.25">
        <request index="0" response="00" foes="00"/>
        <request index="1" response="00" foes="00"/>
    </junction>
    <junction id="4" type="priority" x="9500.00" y="500.00" incLanes="3to4_0" intLanes="" shape="9500.05,500.00 9503.25,500.00 9500.05,500.00">
        <request index="0" response="0" foes="0"/>
    </junction>
    <junction id="5" type="unregulated" x="10000.00" y="0.00" incLanes="3to5_0" intLanes="" shape="10000.00,-3.25 10000.00,-0.05"/>
    <junction id="6" type="unregulated" x="9500.00" y="1000.00" incLanes="4to6_0" intLanes="" shape="9503.25,1000.00 9500.05,1000.00"/>

    <connection from="1to2" to="2to3" fromLane="0" toLane="0" dir="t" state="M"/>
    <connection from="2to3" to="3to4" fromLane="0" toLane="0" tl="3" linkIndex="0" dir="r" state="o"/>
    <connection from="2to3" to="3to5" fromLane="0" toLane="0" tl="3" linkIndex="1" dir="t" state="o"/>
    <connection from="3to4" to="4to6" fromLane="0" toLane="0" dir="s" state="M"/>

</net>
