<?xml version="1.0" encoding="UTF-8"?>

<routes>

  <vType id="passenger" length="5.0" minGap="2.0" maxSpeed="30.0" vClass="passenger">
      <carFollowing-Krauss accel="3.0" decel="5.0" sigma="0" tau="1.64" />
  </vType>

  <vType id="emergency" length="10.0" minGap="2.0" maxSpeed="30.0" vClass="emergency">
      <carFollowing-Krauss accel="3.0" decel="5.0" sigma="0" tau="1.64" />
  </vType>

  <vType id="bus" length="10.0" minGap="4.0" maxSpeed="15.0" vClass="bus">
      <carFollowing-Krauss accel="2.0" decel="3.0" sigma="0" tau="2.0" />
  </vType>

  <vType id="truck" length="10.0" minGap="4.0" maxSpeed="15.0" vClass="truck">
      <carFollowing-Krauss accel="2.0" decel="3.0" sigma="0" tau="2.0" />
  </vType>
  

  <route id="route0" edges="1to2" />  

</routes>
