<?xml version="1.0" encoding="UTF-8"?>

<!-- generated on Sat Nov 28 15:34:34 2015 by SUMO netconvert Version dev-SVN-r19089D
<?xml version="1.0" encoding="UTF-8"?>

<configuration xmlns:xsi="http://www.w3.org/2001/XMLSchema-instance" xsi:noNamespaceSchemaLocation="http://sumo.dlr.de/xsd/netconvertConfiguration.xsd">

    <input>
        <sumo-net-file value="pedcrossing.net.xml"/>
    </input>

    <output>
        <plain-output-prefix value="plain"/>
    </output>

    <processing>
        <no-turnarounds value="true"/>
        <offset.disable-normalization value="true"/>
    </processing>

</configuration>
-->

<tlLogics version="0.13" xmlns:xsi="http://www.w3.org/2001/XMLSchema-instance" xsi:noNamespaceSchemaLocation="http://sumo.dlr.de/xsd/tllogic_file.xsd">
    <tlLogic id="C" type="static" programID="0" offset="0">
        <phase duration="31" state="GGGGr"/>
        <phase duration="4" state="yyyyr"/>
        <phase duration="26" state="rrrrG"/>
        <phase duration="9" state="rrrrr"/>
    </tlLogic>

    <connection from="EC" to="CW" fromLane="0" toLane="0" tl="C" linkIndex="0"/>
    <connection from="EC" to="CW" fromLane="1" toLane="1" tl="C" linkIndex="1"/>
    <connection from="WC" to="CE" fromLane="0" toLane="0" tl="C" linkIndex="2"/>
    <connection from="WC" to="CE" fromLane="1" toLane="1" tl="C" linkIndex="3"/>
</tlLogics>
