<?xml version="1.0" encoding="UTF-8"?>

<!-- generated on Sat Nov 28 15:34:34 2015 by SUMO netconvert Version dev-SVN-r19089D
<?xml version="1.0" encoding="UTF-8"?>

<configuration xmlns:xsi="http://www.w3.org/2001/XMLSchema-instance" xsi:noNamespaceSchemaLocation="http://sumo.dlr.de/xsd/netconvertConfiguration.xsd">

    <input>
        <sumo-net-file value="pedcrossing.net.xml"/>
    </input>

    <output>
        <plain-output-prefix value="plain"/>
    </output>

    <processing>
        <no-turnarounds value="true"/>
        <offset.disable-normalization value="true"/>
    </processing>

</configuration>
-->

<nodes version="0.13" xmlns:xsi="http://www.w3.org/2001/XMLSchema-instance" xsi:noNamespaceSchemaLocation="http://sumo.dlr.de/xsd/nodes_file.xsd">
    <location netOffset="100.00,50.00" convBoundary="0.00,0.00,200.00,100.00" origBoundary="-10000000000.00,-10000000000.00,10000000000.00,10000000000.00" projParameter="!"/>

    <node id="C" x="100.00" y="50.00" type="priority" />
    <node id="E" x="200.00" y="50.00" />
    <node id="N" x="100.00" y="100.00" />
    <node id="S" x="100.00" y="0.00" />
    <node id="W" x="0.00" y="50.00" />
</nodes>
