<?xml version="1.0" encoding="UTF-8"?>

<edges>

  <edge id="1to2" from="1" to="2" numLanes="3" >
      <lane index="0" speed="30" />
      <lane index="1" speed="30" />
  </edge>

</edges>
