<?xml version="1.0" encoding="UTF-8"?>

<routes>

  <vType id="Type1" length="5.0" minGap="2.0" maxSpeed="28.0" vClass="passenger">
      <carFollowing-KraussOrig1 accel="2.0" decel="5.0" sigma="0" tau="1.64" />
  </vType>

  <vType id="Type2" length="5.0" minGap="2.0" maxSpeed="28.0" vClass="passenger">
      <carFollowing-KraussOrig1 accel="2.0" decel="5.0" sigma="0" tau="1" />
  </vType>

  <vType id="Type3" length="5.0" minGap="2.0" maxSpeed="28.0" vClass="passenger">
      <carFollowing-KraussOrig1 accel="2.0" decel="5.0" sigma="0" tau="0.5" />
  </vType>

  <route id="route1" edges="1to2 2to3 3to4 4to6" />

  <vehicle id="veh0" type="Type1" route="route1" depart="1" />
  <vehicle id="veh1" type="Type2" route="route1" depart="5" />
  <vehicle id="veh2" type="Type3" route="route1" depart="10" />

</routes>
