<?xml version="1.0" encoding="UTF-8"?>

<!-- generated on Thu Jun  5 16:01:51 2014 by SUMO netconvert Version svn
<?xml version="1.0" encoding="UTF-8"?>

<configuration xmlns:xsi="http://www.w3.org/2001/XMLSchema-instance" xsi:noNamespaceSchemaLocation="http://sumo-sim.org/xsd/netconvertConfiguration.xsd">

    <input>
        <node-files value="hello.nod.xml"/>
        <edge-files value="hello.edg.xml"/>
    </input>

    <output>
        <output-file value="hello.net.xml"/>
    </output>

    <processing>
        <no-internal-links value="true"/>
    </processing>

</configuration>
-->

<net version="0.13" xmlns:xsi="http://www.w3.org/2001/XMLSchema-instance" xsi:noNamespaceSchemaLocation="http://sumo-sim.org/xsd/net_file.xsd">

    <location netOffset="200.00,200.00" convBoundary="0.00,0.00,500.00,500.00" origBoundary="-200.00,-200.00,300.00,300.00" projParameter="!"/>

    <edge id="00to11" from="00" to="11" priority="3">
        <lane id="00to11_0" index="0" speed="10.00" length="282.84" shape="3.50,-3.50 200.52,193.52"/>
        <lane id="00to11_1" index="1" speed="10.00" length="282.84" shape="1.17,-1.17 198.19,195.85"/>
    </edge>
    <edge id="11to12" from="11" to="12" priority="3">
        <lane id="11to12_0" index="0" speed="10.00" length="306.20" shape="204.95,201.45 204.95,493.45"/>
        <lane id="11to12_1" index="1" speed="10.00" length="306.20" shape="201.65,201.45 201.65,493.45"/>
    </edge>
    <edge id="11to21" from="11" to="21" priority="3">
        <lane id="11to21_0" index="0" speed="10.00" length="300.00" shape="208.05,195.05 500.05,195.05"/>
        <lane id="11to21_1" index="1" speed="10.00" length="300.00" shape="208.05,198.35 500.05,198.35"/>
    </edge>
    <edge id="12to22" from="12" to="22" priority="3">
        <lane id="12to22_0" index="0" speed="10.00" length="311.95" shape="206.55,495.05 498.55,495.05"/>
        <lane id="12to22_1" index="1" speed="10.00" length="311.95" shape="206.55,498.35 498.55,498.35"/>
    </edge>
    <edge id="21to22" from="21" to="22" priority="3">
        <lane id="21to22_0" index="0" speed="20.00" length="305.75" shape="504.95,199.95 504.95,491.95"/>
        <lane id="21to22_1" index="1" speed="20.00" length="305.75" shape="501.65,199.95 501.65,491.95"/>
    </edge>

    <tlLogic id="11" type="static" programID="0" offset="0">
        <phase duration="31" state="GGGG"/>
        <phase duration="3" state="yyyy"/>
    </tlLogic>

    <junction id="00" type="unregulated" x="0.00" y="0.00" incLanes="" intLanes="" shape="0.04,-0.04 4.63,-4.63"/>
    <junction id="11" type="traffic_light" x="200.00" y="200.00" incLanes="00to11_0 00to11_1" intLanes="" shape="200.05,201.45 206.55,201.45 208.05,199.95 208.05,193.45 201.65,192.39 197.06,196.99">
        <request index="0" response="0000" foes="0000"/>
        <request index="1" response="0000" foes="0000"/>
        <request index="2" response="0000" foes="0000"/>
        <request index="3" response="0000" foes="0000"/>
    </junction>
    <junction id="12" type="priority" x="200.00" y="500.00" incLanes="11to12_0 11to12_1" intLanes="" shape="206.55,499.95 206.55,493.45 200.05,493.45">
        <request index="0" response="00" foes="00"/>
        <request index="1" response="00" foes="00"/>
    </junction>
    <junction id="21" type="priority" x="500.00" y="200.00" incLanes="11to21_0 11to21_1" intLanes="" shape="500.05,199.95 506.55,199.95 500.05,193.45 500.05,199.95">
        <request index="0" response="00" foes="00"/>
        <request index="1" response="00" foes="00"/>
    </junction>
    <junction id="22" type="unregulated" x="500.00" y="500.00" incLanes="21to22_0 21to22_1 12to22_0 12to22_1" intLanes="" shape="506.55,491.95 500.05,491.95 498.55,493.45 498.55,499.95"/>

    <connection from="00to11" to="11to21" fromLane="0" toLane="0" tl="11" linkIndex="0" dir="r" state="o"/>
    <connection from="00to11" to="11to21" fromLane="0" toLane="1" tl="11" linkIndex="1" dir="r" state="o"/>
    <connection from="00to11" to="11to12" fromLane="1" toLane="0" tl="11" linkIndex="2" dir="l" state="o"/>
    <connection from="00to11" to="11to12" fromLane="1" toLane="1" tl="11" linkIndex="3" dir="l" state="o"/>
    <connection from="11to12" to="12to22" fromLane="0" toLane="0" dir="r" state="M"/>
    <connection from="11to12" to="12to22" fromLane="1" toLane="1" dir="r" state="M"/>
    <connection from="11to21" to="21to22" fromLane="0" toLane="0" dir="l" state="M"/>
    <connection from="11to21" to="21to22" fromLane="1" toLane="1" dir="l" state="M"/>

</net>
