<?xml version="1.0" encoding="UTF-8"?>
<nodes xmlns:xsi="http://www.w3.org/2001/XMLSchema-instance" xsi:noNamespaceSchemaLocation="http://sumo.sf.net/xsd/nodes_file.xsd">

  <node id="00" x="-200" y="-200" />
  <node id="11" x="0" y="0" type="traffic_light" />
  <node id="12" x="0" y="300" />
  <node id="22" x="300" y="300" />
  <node id="21" x="300" y="0" />

</nodes>
