<?xml version="1.0" encoding="UTF-8"?>

<!-- generated on Tue Oct 14 23:30:27 2014 by SUMO netconvert Version svn
<?xml version="1.0" encoding="UTF-8"?>

<configuration xmlns:xsi="http://www.w3.org/2001/XMLSchema-instance" xsi:noNamespaceSchemaLocation="http://sumo-sim.org/xsd/netconvertConfiguration.xsd">

    <input>
        <node-files value="hello.nod.xml"/>
        <edge-files value="hello.edg.xml"/>
    </input>

    <output>
        <output-file value="hello.net.xml"/>
    </output>

    <processing>
        <no-internal-links value="true"/>
    </processing>

</configuration>
-->

<net version="0.13" xmlns:xsi="http://www.w3.org/2001/XMLSchema-instance" xsi:noNamespaceSchemaLocation="http://sumo-sim.org/xsd/net_file.xsd">

    <location netOffset="2500.00,500.00" convBoundary="0.00,0.00,4500.00,1000.00" origBoundary="-2500.00,-500.00,2000.00,500.00" projParameter="!"/>

    <edge id="10to20" from="10" to="20" priority="-1">
        <lane id="10to20_0" index="0" speed="11.18" length="500.00" shape="4504.95,1.45 4504.95,491.95"/>
        <lane id="10to20_1" index="1" speed="11.18" length="500.00" shape="4501.65,1.45 4501.65,491.95"/>
    </edge>
    <edge id="11to1" from="11" to="1" priority="-1">
        <lane id="11to1_0" index="0" speed="11.18" length="500.00" shape="-4.95,491.95 -4.95,1.45"/>
        <lane id="11to1_1" index="1" speed="11.18" length="500.00" shape="-1.65,491.95 -1.65,1.45"/>
    </edge>
    <edge id="11to12" from="11" to="12" priority="-1">
        <lane id="11to12_0" index="0" speed="17.88" length="500.00" shape="8.05,495.05 491.95,495.05"/>
        <lane id="11to12_1" index="1" speed="17.88" length="500.00" shape="8.05,498.35 491.95,498.35"/>
    </edge>
    <edge id="11to21" from="11" to="21" priority="-1">
        <lane id="11to21_0" index="0" speed="11.18" length="500.00" shape="4.95,508.05 4.95,998.55"/>
        <lane id="11to21_1" index="1" speed="11.18" length="500.00" shape="1.65,508.05 1.65,998.55"/>
    </edge>
    <edge id="12to11" from="12" to="11" priority="-1">
        <lane id="12to11_0" index="0" speed="17.88" length="500.00" shape="491.95,504.95 8.05,504.95"/>
        <lane id="12to11_1" index="1" speed="17.88" length="500.00" shape="491.95,501.65 8.05,501.65"/>
    </edge>
    <edge id="12to13" from="12" to="13" priority="-1">
        <lane id="12to13_0" index="0" speed="17.88" length="500.00" shape="508.05,495.05 991.95,495.05"/>
        <lane id="12to13_1" index="1" speed="17.88" length="500.00" shape="508.05,498.35 991.95,498.35"/>
    </edge>
    <edge id="12to2" from="12" to="2" priority="-1">
        <lane id="12to2_0" index="0" speed="11.18" length="500.00" shape="495.05,491.95 495.05,1.45"/>
        <lane id="12to2_1" index="1" speed="11.18" length="500.00" shape="498.35,491.95 498.35,1.45"/>
    </edge>
    <edge id="12to22" from="12" to="22" priority="-1">
        <lane id="12to22_0" index="0" speed="11.18" length="500.00" shape="504.95,508.05 504.95,998.55"/>
        <lane id="12to22_1" index="1" speed="11.18" length="500.00" shape="501.65,508.05 501.65,998.55"/>
    </edge>
    <edge id="13to12" from="13" to="12" priority="-1">
        <lane id="13to12_0" index="0" speed="17.88" length="500.00" shape="991.95,504.95 508.05,504.95"/>
        <lane id="13to12_1" index="1" speed="17.88" length="500.00" shape="991.95,501.65 508.05,501.65"/>
    </edge>
    <edge id="13to14" from="13" to="14" priority="-1">
        <lane id="13to14_0" index="0" speed="17.88" length="500.00" shape="1008.05,495.05 1491.95,495.05"/>
        <lane id="13to14_1" index="1" speed="17.88" length="500.00" shape="1008.05,498.35 1491.95,498.35"/>
    </edge>
    <edge id="13to23" from="13" to="23" priority="-1">
        <lane id="13to23_0" index="0" speed="11.18" length="500.00" shape="1004.95,508.05 1004.95,998.55"/>
        <lane id="13to23_1" index="1" speed="11.18" length="500.00" shape="1001.65,508.05 1001.65,998.55"/>
    </edge>
    <edge id="13to3" from="13" to="3" priority="-1">
        <lane id="13to3_0" index="0" speed="11.18" length="500.00" shape="995.05,491.95 995.05,1.45"/>
        <lane id="13to3_1" index="1" speed="11.18" length="500.00" shape="998.35,491.95 998.35,1.45"/>
    </edge>
    <edge id="14to13" from="14" to="13" priority="-1">
        <lane id="14to13_0" index="0" speed="17.88" length="500.00" shape="1491.95,504.95 1008.05,504.95"/>
        <lane id="14to13_1" index="1" speed="17.88" length="500.00" shape="1491.95,501.65 1008.05,501.65"/>
    </edge>
    <edge id="14to15" from="14" to="15" priority="-1">
        <lane id="14to15_0" index="0" speed="17.88" length="500.00" shape="1508.05,495.05 1991.95,495.05"/>
        <lane id="14to15_1" index="1" speed="17.88" length="500.00" shape="1508.05,498.35 1991.95,498.35"/>
    </edge>
    <edge id="14to24" from="14" to="24" priority="-1">
        <lane id="14to24_0" index="0" speed="11.18" length="500.00" shape="1504.95,508.05 1504.95,998.55"/>
        <lane id="14to24_1" index="1" speed="11.18" length="500.00" shape="1501.65,508.05 1501.65,998.55"/>
    </edge>
    <edge id="14to4" from="14" to="4" priority="-1">
        <lane id="14to4_0" index="0" speed="11.18" length="500.00" shape="1495.05,491.95 1495.05,1.45"/>
        <lane id="14to4_1" index="1" speed="11.18" length="500.00" shape="1498.35,491.95 1498.35,1.45"/>
    </edge>
    <edge id="15to14" from="15" to="14" priority="-1">
        <lane id="15to14_0" index="0" speed="17.88" length="500.00" shape="1991.95,504.95 1508.05,504.95"/>
        <lane id="15to14_1" index="1" speed="17.88" length="500.00" shape="1991.95,501.65 1508.05,501.65"/>
    </edge>
    <edge id="15to16" from="15" to="16" priority="-1">
        <lane id="15to16_0" index="0" speed="17.88" length="500.00" shape="2008.05,495.05 2491.95,495.05"/>
        <lane id="15to16_1" index="1" speed="17.88" length="500.00" shape="2008.05,498.35 2491.95,498.35"/>
    </edge>
    <edge id="15to25" from="15" to="25" priority="-1">
        <lane id="15to25_0" index="0" speed="11.18" length="500.00" shape="2004.95,508.05 2004.95,998.55"/>
        <lane id="15to25_1" index="1" speed="11.18" length="500.00" shape="2001.65,508.05 2001.65,998.55"/>
    </edge>
    <edge id="15to5" from="15" to="5" priority="-1">
        <lane id="15to5_0" index="0" speed="11.18" length="500.00" shape="1995.05,491.95 1995.05,1.45"/>
        <lane id="15to5_1" index="1" speed="11.18" length="500.00" shape="1998.35,491.95 1998.35,1.45"/>
    </edge>
    <edge id="16to15" from="16" to="15" priority="-1">
        <lane id="16to15_0" index="0" speed="17.88" length="500.00" shape="2491.95,504.95 2008.05,504.95"/>
        <lane id="16to15_1" index="1" speed="17.88" length="500.00" shape="2491.95,501.65 2008.05,501.65"/>
    </edge>
    <edge id="16to17" from="16" to="17" priority="-1">
        <lane id="16to17_0" index="0" speed="17.88" length="500.00" shape="2508.05,495.05 2991.95,495.05"/>
        <lane id="16to17_1" index="1" speed="17.88" length="500.00" shape="2508.05,498.35 2991.95,498.35"/>
    </edge>
    <edge id="16to26" from="16" to="26" priority="-1">
        <lane id="16to26_0" index="0" speed="11.18" length="500.00" shape="2504.95,508.05 2504.95,998.55"/>
        <lane id="16to26_1" index="1" speed="11.18" length="500.00" shape="2501.65,508.05 2501.65,998.55"/>
    </edge>
    <edge id="16to6" from="16" to="6" priority="-1">
        <lane id="16to6_0" index="0" speed="11.18" length="500.00" shape="2495.05,491.95 2495.05,1.45"/>
        <lane id="16to6_1" index="1" speed="11.18" length="500.00" shape="2498.35,491.95 2498.35,1.45"/>
    </edge>
    <edge id="17to16" from="17" to="16" priority="-1">
        <lane id="17to16_0" index="0" speed="17.88" length="500.00" shape="2991.95,504.95 2508.05,504.95"/>
        <lane id="17to16_1" index="1" speed="17.88" length="500.00" shape="2991.95,501.65 2508.05,501.65"/>
    </edge>
    <edge id="17to18" from="17" to="18" priority="-1">
        <lane id="17to18_0" index="0" speed="17.88" length="500.00" shape="3008.05,495.05 3491.95,495.05"/>
        <lane id="17to18_1" index="1" speed="17.88" length="500.00" shape="3008.05,498.35 3491.95,498.35"/>
    </edge>
    <edge id="17to27" from="17" to="27" priority="-1">
        <lane id="17to27_0" index="0" speed="11.18" length="500.00" shape="3004.95,508.05 3004.95,998.55"/>
        <lane id="17to27_1" index="1" speed="11.18" length="500.00" shape="3001.65,508.05 3001.65,998.55"/>
    </edge>
    <edge id="17to7" from="17" to="7" priority="-1">
        <lane id="17to7_0" index="0" speed="11.18" length="500.00" shape="2995.05,491.95 2995.05,1.45"/>
        <lane id="17to7_1" index="1" speed="11.18" length="500.00" shape="2998.35,491.95 2998.35,1.45"/>
    </edge>
    <edge id="18to17" from="18" to="17" priority="-1">
        <lane id="18to17_0" index="0" speed="17.88" length="500.00" shape="3491.95,504.95 3008.05,504.95"/>
        <lane id="18to17_1" index="1" speed="17.88" length="500.00" shape="3491.95,501.65 3008.05,501.65"/>
    </edge>
    <edge id="18to19" from="18" to="19" priority="-1">
        <lane id="18to19_0" index="0" speed="17.88" length="500.00" shape="3508.05,495.05 3991.95,495.05"/>
        <lane id="18to19_1" index="1" speed="17.88" length="500.00" shape="3508.05,498.35 3991.95,498.35"/>
    </edge>
    <edge id="18to28" from="18" to="28" priority="-1">
        <lane id="18to28_0" index="0" speed="11.18" length="500.00" shape="3504.95,508.05 3504.95,998.55"/>
        <lane id="18to28_1" index="1" speed="11.18" length="500.00" shape="3501.65,508.05 3501.65,998.55"/>
    </edge>
    <edge id="18to8" from="18" to="8" priority="-1">
        <lane id="18to8_0" index="0" speed="11.18" length="500.00" shape="3495.05,491.95 3495.05,1.45"/>
        <lane id="18to8_1" index="1" speed="11.18" length="500.00" shape="3498.35,491.95 3498.35,1.45"/>
    </edge>
    <edge id="19to18" from="19" to="18" priority="-1">
        <lane id="19to18_0" index="0" speed="17.88" length="500.00" shape="3991.95,504.95 3508.05,504.95"/>
        <lane id="19to18_1" index="1" speed="17.88" length="500.00" shape="3991.95,501.65 3508.05,501.65"/>
    </edge>
    <edge id="19to20" from="19" to="20" priority="-1">
        <lane id="19to20_0" index="0" speed="17.88" length="500.00" shape="4008.05,495.05 4491.95,495.05"/>
        <lane id="19to20_1" index="1" speed="17.88" length="500.00" shape="4008.05,498.35 4491.95,498.35"/>
    </edge>
    <edge id="19to29" from="19" to="29" priority="-1">
        <lane id="19to29_0" index="0" speed="11.18" length="500.00" shape="4004.95,508.05 4004.95,998.55"/>
        <lane id="19to29_1" index="1" speed="11.18" length="500.00" shape="4001.65,508.05 4001.65,998.55"/>
    </edge>
    <edge id="19to9" from="19" to="9" priority="-1">
        <lane id="19to9_0" index="0" speed="11.18" length="500.00" shape="3995.05,491.95 3995.05,1.45"/>
        <lane id="19to9_1" index="1" speed="11.18" length="500.00" shape="3998.35,491.95 3998.35,1.45"/>
    </edge>
    <edge id="1to11" from="1" to="11" priority="-1">
        <lane id="1to11_0" index="0" speed="11.18" length="500.00" shape="4.95,1.45 4.95,491.95"/>
        <lane id="1to11_1" index="1" speed="11.18" length="500.00" shape="1.65,1.45 1.65,491.95"/>
    </edge>
    <edge id="1to2" from="1" to="2" priority="-1">
        <lane id="1to2_0" index="0" speed="11.18" length="500.00" shape="8.05,-1.65 491.95,-1.65"/>
    </edge>
    <edge id="20to10" from="20" to="10" priority="-1">
        <lane id="20to10_0" index="0" speed="11.18" length="500.00" shape="4495.05,491.95 4495.05,1.45"/>
        <lane id="20to10_1" index="1" speed="11.18" length="500.00" shape="4498.35,491.95 4498.35,1.45"/>
    </edge>
    <edge id="20to19" from="20" to="19" priority="-1">
        <lane id="20to19_0" index="0" speed="17.88" length="500.00" shape="4491.95,504.95 4008.05,504.95"/>
        <lane id="20to19_1" index="1" speed="17.88" length="500.00" shape="4491.95,501.65 4008.05,501.65"/>
    </edge>
    <edge id="20to30" from="20" to="30" priority="-1">
        <lane id="20to30_0" index="0" speed="11.18" length="500.00" shape="4504.95,508.05 4504.95,998.55"/>
        <lane id="20to30_1" index="1" speed="11.18" length="500.00" shape="4501.65,508.05 4501.65,998.55"/>
    </edge>
    <edge id="21to11" from="21" to="11" priority="-1">
        <lane id="21to11_0" index="0" speed="11.18" length="500.00" shape="-4.95,998.55 -4.95,508.05"/>
        <lane id="21to11_1" index="1" speed="11.18" length="500.00" shape="-1.65,998.55 -1.65,508.05"/>
    </edge>
    <edge id="22to12" from="22" to="12" priority="-1">
        <lane id="22to12_0" index="0" speed="11.18" length="500.00" shape="495.05,998.55 495.05,508.05"/>
        <lane id="22to12_1" index="1" speed="11.18" length="500.00" shape="498.35,998.55 498.35,508.05"/>
    </edge>
    <edge id="22to21" from="22" to="21" priority="-1">
        <lane id="22to21_0" index="0" speed="11.18" length="500.00" shape="491.95,1001.65 8.05,1001.65"/>
    </edge>
    <edge id="23to13" from="23" to="13" priority="-1">
        <lane id="23to13_0" index="0" speed="11.18" length="500.00" shape="995.05,998.55 995.05,508.05"/>
        <lane id="23to13_1" index="1" speed="11.18" length="500.00" shape="998.35,998.55 998.35,508.05"/>
    </edge>
    <edge id="23to22" from="23" to="22" priority="-1">
        <lane id="23to22_0" index="0" speed="11.18" length="500.00" shape="991.95,1001.65 508.05,1001.65"/>
    </edge>
    <edge id="24to14" from="24" to="14" priority="-1">
        <lane id="24to14_0" index="0" speed="11.18" length="500.00" shape="1495.05,998.55 1495.05,508.05"/>
        <lane id="24to14_1" index="1" speed="11.18" length="500.00" shape="1498.35,998.55 1498.35,508.05"/>
    </edge>
    <edge id="24to23" from="24" to="23" priority="-1">
        <lane id="24to23_0" index="0" speed="11.18" length="500.00" shape="1491.95,1001.65 1008.05,1001.65"/>
    </edge>
    <edge id="25to15" from="25" to="15" priority="-1">
        <lane id="25to15_0" index="0" speed="11.18" length="500.00" shape="1995.05,998.55 1995.05,508.05"/>
        <lane id="25to15_1" index="1" speed="11.18" length="500.00" shape="1998.35,998.55 1998.35,508.05"/>
    </edge>
    <edge id="25to24" from="25" to="24" priority="-1">
        <lane id="25to24_0" index="0" speed="11.18" length="500.00" shape="1991.95,1001.65 1508.05,1001.65"/>
    </edge>
    <edge id="26to16" from="26" to="16" priority="-1">
        <lane id="26to16_0" index="0" speed="11.18" length="500.00" shape="2495.05,998.55 2495.05,508.05"/>
        <lane id="26to16_1" index="1" speed="11.18" length="500.00" shape="2498.35,998.55 2498.35,508.05"/>
    </edge>
    <edge id="26to25" from="26" to="25" priority="-1">
        <lane id="26to25_0" index="0" speed="11.18" length="500.00" shape="2491.95,1001.65 2008.05,1001.65"/>
    </edge>
    <edge id="27to17" from="27" to="17" priority="-1">
        <lane id="27to17_0" index="0" speed="11.18" length="500.00" shape="2995.05,998.55 2995.05,508.05"/>
        <lane id="27to17_1" index="1" speed="11.18" length="500.00" shape="2998.35,998.55 2998.35,508.05"/>
    </edge>
    <edge id="27to26" from="27" to="26" priority="-1">
        <lane id="27to26_0" index="0" speed="11.18" length="500.00" shape="2991.95,1001.65 2508.05,1001.65"/>
    </edge>
    <edge id="28to18" from="28" to="18" priority="-1">
        <lane id="28to18_0" index="0" speed="11.18" length="500.00" shape="3495.05,998.55 3495.05,508.05"/>
        <lane id="28to18_1" index="1" speed="11.18" length="500.00" shape="3498.35,998.55 3498.35,508.05"/>
    </edge>
    <edge id="28to27" from="28" to="27" priority="-1">
        <lane id="28to27_0" index="0" speed="11.18" length="500.00" shape="3491.95,1001.65 3008.05,1001.65"/>
    </edge>
    <edge id="29to19" from="29" to="19" priority="-1">
        <lane id="29to19_0" index="0" speed="11.18" length="500.00" shape="3995.05,998.55 3995.05,508.05"/>
        <lane id="29to19_1" index="1" speed="11.18" length="500.00" shape="3998.35,998.55 3998.35,508.05"/>
    </edge>
    <edge id="29to28" from="29" to="28" priority="-1">
        <lane id="29to28_0" index="0" speed="11.18" length="500.00" shape="3991.95,1001.65 3508.05,1001.65"/>
    </edge>
    <edge id="2to12" from="2" to="12" priority="-1">
        <lane id="2to12_0" index="0" speed="11.18" length="500.00" shape="504.95,1.45 504.95,491.95"/>
        <lane id="2to12_1" index="1" speed="11.18" length="500.00" shape="501.65,1.45 501.65,491.95"/>
    </edge>
    <edge id="2to3" from="2" to="3" priority="-1">
        <lane id="2to3_0" index="0" speed="11.18" length="500.00" shape="508.05,-1.65 991.95,-1.65"/>
    </edge>
    <edge id="30to20" from="30" to="20" priority="-1">
        <lane id="30to20_0" index="0" speed="11.18" length="500.00" shape="4495.05,998.55 4495.05,508.05"/>
        <lane id="30to20_1" index="1" speed="11.18" length="500.00" shape="4498.35,998.55 4498.35,508.05"/>
    </edge>
    <edge id="30to29" from="30" to="29" priority="-1">
        <lane id="30to29_0" index="0" speed="11.18" length="500.00" shape="4491.95,1001.65 4008.05,1001.65"/>
    </edge>
    <edge id="3to13" from="3" to="13" priority="-1">
        <lane id="3to13_0" index="0" speed="11.18" length="500.00" shape="1004.95,1.45 1004.95,491.95"/>
        <lane id="3to13_1" index="1" speed="11.18" length="500.00" shape="1001.65,1.45 1001.65,491.95"/>
    </edge>
    <edge id="3to4" from="3" to="4" priority="-1">
        <lane id="3to4_0" index="0" speed="11.18" length="500.00" shape="1008.05,-1.65 1491.95,-1.65"/>
    </edge>
    <edge id="4to14" from="4" to="14" priority="-1">
        <lane id="4to14_0" index="0" speed="11.18" length="500.00" shape="1504.95,1.45 1504.95,491.95"/>
        <lane id="4to14_1" index="1" speed="11.18" length="500.00" shape="1501.65,1.45 1501.65,491.95"/>
    </edge>
    <edge id="4to5" from="4" to="5" priority="-1">
        <lane id="4to5_0" index="0" speed="11.18" length="500.00" shape="1508.05,-1.65 1991.95,-1.65"/>
    </edge>
    <edge id="5to15" from="5" to="15" priority="-1">
        <lane id="5to15_0" index="0" speed="11.18" length="500.00" shape="2004.95,1.45 2004.95,491.95"/>
        <lane id="5to15_1" index="1" speed="11.18" length="500.00" shape="2001.65,1.45 2001.65,491.95"/>
    </edge>
    <edge id="5to6" from="5" to="6" priority="-1">
        <lane id="5to6_0" index="0" speed="11.18" length="500.00" shape="2008.05,-1.65 2491.95,-1.65"/>
    </edge>
    <edge id="6to16" from="6" to="16" priority="-1">
        <lane id="6to16_0" index="0" speed="11.18" length="500.00" shape="2504.95,1.45 2504.95,491.95"/>
        <lane id="6to16_1" index="1" speed="11.18" length="500.00" shape="2501.65,1.45 2501.65,491.95"/>
    </edge>
    <edge id="6to7" from="6" to="7" priority="-1">
        <lane id="6to7_0" index="0" speed="11.18" length="500.00" shape="2508.05,-1.65 2991.95,-1.65"/>
    </edge>
    <edge id="7to17" from="7" to="17" priority="-1">
        <lane id="7to17_0" index="0" speed="11.18" length="500.00" shape="3004.95,1.45 3004.95,491.95"/>
        <lane id="7to17_1" index="1" speed="11.18" length="500.00" shape="3001.65,1.45 3001.65,491.95"/>
    </edge>
    <edge id="7to8" from="7" to="8" priority="-1">
        <lane id="7to8_0" index="0" speed="11.18" length="500.00" shape="3008.05,-1.65 3491.95,-1.65"/>
    </edge>
    <edge id="8to18" from="8" to="18" priority="-1">
        <lane id="8to18_0" index="0" speed="11.18" length="500.00" shape="3504.95,1.45 3504.95,491.95"/>
        <lane id="8to18_1" index="1" speed="11.18" length="500.00" shape="3501.65,1.45 3501.65,491.95"/>
    </edge>
    <edge id="8to9" from="8" to="9" priority="-1">
        <lane id="8to9_0" index="0" speed="11.18" length="500.00" shape="3508.05,-1.65 3991.95,-1.65"/>
    </edge>
    <edge id="9to10" from="9" to="10" priority="-1">
        <lane id="9to10_0" index="0" speed="11.18" length="500.00" shape="4008.05,-1.65 4491.95,-1.65"/>
    </edge>
    <edge id="9to19" from="9" to="19" priority="-1">
        <lane id="9to19_0" index="0" speed="11.18" length="500.00" shape="4004.95,1.45 4004.95,491.95"/>
        <lane id="9to19_1" index="1" speed="11.18" length="500.00" shape="4001.65,1.45 4001.65,491.95"/>
    </edge>

    <tlLogic id="1" type="static" programID="0" offset="0">
        <phase duration="31" state="GG"/>
        <phase duration="3" state="yy"/>
    </tlLogic>
    <tlLogic id="10" type="static" programID="0" offset="0">
        <phase duration="31" state="gGG"/>
        <phase duration="3" state="yyy"/>
        <phase duration="31" state="rGG"/>
        <phase duration="3" state="ryy"/>
    </tlLogic>
    <tlLogic id="11" type="static" programID="0" offset="0">
        <phase duration="31" state="GggrrrrGGGg"/>
        <phase duration="5" state="yggrrrryyyg"/>
        <phase duration="6" state="rGGrrrrrrrG"/>
        <phase duration="5" state="ryyrrrrrrry"/>
        <phase duration="31" state="rrrGGGgGGrr"/>
        <phase duration="5" state="rrryyyyyyrr"/>
    </tlLogic>
    <tlLogic id="12" type="static" programID="0" offset="0">
        <phase duration="31" state="rrrrGGGggrrrrGGGgg"/>
        <phase duration="5" state="rrrryyyggrrrryyygg"/>
        <phase duration="6" state="rrrrrrrGGrrrrrrrGG"/>
        <phase duration="5" state="rrrrrrryyrrrrrrryy"/>
        <phase duration="31" state="GGggrrrrrGGggrrrrr"/>
        <phase duration="5" state="yyggrrrrryyggrrrrr"/>
        <phase duration="6" state="rrGGrrrrrrrGGrrrrr"/>
        <phase duration="5" state="rryyrrrrrrryyrrrrr"/>
    </tlLogic>
    <tlLogic id="13" type="static" programID="0" offset="0">
        <phase duration="31" state="rrrrGGGggrrrrGGGgg"/>
        <phase duration="5" state="rrrryyyggrrrryyygg"/>
        <phase duration="6" state="rrrrrrrGGrrrrrrrGG"/>
        <phase duration="5" state="rrrrrrryyrrrrrrryy"/>
        <phase duration="31" state="GGggrrrrrGGggrrrrr"/>
        <phase duration="5" state="yyggrrrrryyggrrrrr"/>
        <phase duration="6" state="rrGGrrrrrrrGGrrrrr"/>
        <phase duration="5" state="rryyrrrrrrryyrrrrr"/>
    </tlLogic>
    <tlLogic id="14" type="static" programID="0" offset="0">
        <phase duration="31" state="rrrrGGGggrrrrGGGgg"/>
        <phase duration="5" state="rrrryyyggrrrryyygg"/>
        <phase duration="6" state="rrrrrrrGGrrrrrrrGG"/>
        <phase duration="5" state="rrrrrrryyrrrrrrryy"/>
        <phase duration="31" state="GGggrrrrrGGggrrrrr"/>
        <phase duration="5" state="yyggrrrrryyggrrrrr"/>
        <phase duration="6" state="rrGGrrrrrrrGGrrrrr"/>
        <phase duration="5" state="rryyrrrrrrryyrrrrr"/>
    </tlLogic>
    <tlLogic id="15" type="static" programID="0" offset="0">
        <phase duration="31" state="rrrrGGGggrrrrGGGgg"/>
        <phase duration="5" state="rrrryyyggrrrryyygg"/>
        <phase duration="6" state="rrrrrrrGGrrrrrrrGG"/>
        <phase duration="5" state="rrrrrrryyrrrrrrryy"/>
        <phase duration="31" state="GGggrrrrrGGggrrrrr"/>
        <phase duration="5" state="yyggrrrrryyggrrrrr"/>
        <phase duration="6" state="rrGGrrrrrrrGGrrrrr"/>
        <phase duration="5" state="rryyrrrrrrryyrrrrr"/>
    </tlLogic>
    <tlLogic id="16" type="static" programID="0" offset="0">
        <phase duration="31" state="rrrrGGGggrrrrGGGgg"/>
        <phase duration="5" state="rrrryyyggrrrryyygg"/>
        <phase duration="6" state="rrrrrrrGGrrrrrrrGG"/>
        <phase duration="5" state="rrrrrrryyrrrrrrryy"/>
        <phase duration="31" state="GGggrrrrrGGggrrrrr"/>
        <phase duration="5" state="yyggrrrrryyggrrrrr"/>
        <phase duration="6" state="rrGGrrrrrrrGGrrrrr"/>
        <phase duration="5" state="rryyrrrrrrryyrrrrr"/>
    </tlLogic>
    <tlLogic id="17" type="static" programID="0" offset="0">
        <phase duration="31" state="rrrrGGGggrrrrGGGgg"/>
        <phase duration="5" state="rrrryyyggrrrryyygg"/>
        <phase duration="6" state="rrrrrrrGGrrrrrrrGG"/>
        <phase duration="5" state="rrrrrrryyrrrrrrryy"/>
        <phase duration="31" state="GGggrrrrrGGggrrrrr"/>
        <phase duration="5" state="yyggrrrrryyggrrrrr"/>
        <phase duration="6" state="rrGGrrrrrrrGGrrrrr"/>
        <phase duration="5" state="rryyrrrrrrryyrrrrr"/>
    </tlLogic>
    <tlLogic id="18" type="static" programID="0" offset="0">
        <phase duration="31" state="rrrrGGGggrrrrGGGgg"/>
        <phase duration="5" state="rrrryyyggrrrryyygg"/>
        <phase duration="6" state="rrrrrrrGGrrrrrrrGG"/>
        <phase duration="5" state="rrrrrrryyrrrrrrryy"/>
        <phase duration="31" state="GGggrrrrrGGggrrrrr"/>
        <phase duration="5" state="yyggrrrrryyggrrrrr"/>
        <phase duration="6" state="rrGGrrrrrrrGGrrrrr"/>
        <phase duration="5" state="rryyrrrrrrryyrrrrr"/>
    </tlLogic>
    <tlLogic id="19" type="static" programID="0" offset="0">
        <phase duration="31" state="rrrrGGGggrrrrGGGgg"/>
        <phase duration="5" state="rrrryyyggrrrryyygg"/>
        <phase duration="6" state="rrrrrrrGGrrrrrrrGG"/>
        <phase duration="5" state="rrrrrrryyrrrrrrryy"/>
        <phase duration="31" state="GGggrrrrrGGggrrrrr"/>
        <phase duration="5" state="yyggrrrrryyggrrrrr"/>
        <phase duration="6" state="rrGGrrrrrrrGGrrrrr"/>
        <phase duration="5" state="rryyrrrrrrryyrrrrr"/>
    </tlLogic>
    <tlLogic id="2" type="static" programID="0" offset="0">
        <phase duration="31" state="GGrrr"/>
        <phase duration="3" state="yyrrr"/>
        <phase duration="31" state="rrGGG"/>
        <phase duration="3" state="rryyy"/>
    </tlLogic>
    <tlLogic id="20" type="static" programID="0" offset="0">
        <phase duration="31" state="GGGgGggrrrr"/>
        <phase duration="5" state="yyygyggrrrr"/>
        <phase duration="6" state="rrrGrGGrrrr"/>
        <phase duration="5" state="rrryryyrrrr"/>
        <phase duration="31" state="GGrrrrrGGGg"/>
        <phase duration="5" state="yyrrrrryyyy"/>
    </tlLogic>
    <tlLogic id="21" type="static" programID="0" offset="0">
        <phase duration="31" state="GGr"/>
        <phase duration="3" state="yyr"/>
        <phase duration="31" state="GGg"/>
        <phase duration="3" state="yyy"/>
    </tlLogic>
    <tlLogic id="22" type="static" programID="0" offset="0">
        <phase duration="31" state="GGGrr"/>
        <phase duration="3" state="yyyrr"/>
        <phase duration="31" state="rrrGG"/>
        <phase duration="3" state="rrryy"/>
    </tlLogic>
    <tlLogic id="23" type="static" programID="0" offset="0">
        <phase duration="31" state="GGGrr"/>
        <phase duration="3" state="yyyrr"/>
        <phase duration="31" state="rrrGG"/>
        <phase duration="3" state="rrryy"/>
    </tlLogic>
    <tlLogic id="24" type="static" programID="0" offset="0">
        <phase duration="31" state="GGGrr"/>
        <phase duration="3" state="yyyrr"/>
        <phase duration="31" state="rrrGG"/>
        <phase duration="3" state="rrryy"/>
    </tlLogic>
    <tlLogic id="25" type="static" programID="0" offset="0">
        <phase duration="31" state="GGGrr"/>
        <phase duration="3" state="yyyrr"/>
        <phase duration="31" state="rrrGG"/>
        <phase duration="3" state="rrryy"/>
    </tlLogic>
    <tlLogic id="26" type="static" programID="0" offset="0">
        <phase duration="31" state="GGGrr"/>
        <phase duration="3" state="yyyrr"/>
        <phase duration="31" state="rrrGG"/>
        <phase duration="3" state="rrryy"/>
    </tlLogic>
    <tlLogic id="27" type="static" programID="0" offset="0">
        <phase duration="31" state="GGGrr"/>
        <phase duration="3" state="yyyrr"/>
        <phase duration="31" state="rrrGG"/>
        <phase duration="3" state="rrryy"/>
    </tlLogic>
    <tlLogic id="28" type="static" programID="0" offset="0">
        <phase duration="31" state="GGGrr"/>
        <phase duration="3" state="yyyrr"/>
        <phase duration="31" state="rrrGG"/>
        <phase duration="3" state="rrryy"/>
    </tlLogic>
    <tlLogic id="29" type="static" programID="0" offset="0">
        <phase duration="31" state="GGGrr"/>
        <phase duration="3" state="yyyrr"/>
        <phase duration="31" state="rrrGG"/>
        <phase duration="3" state="rrryy"/>
    </tlLogic>
    <tlLogic id="3" type="static" programID="0" offset="0">
        <phase duration="31" state="GGrrr"/>
        <phase duration="3" state="yyrrr"/>
        <phase duration="31" state="rrGGG"/>
        <phase duration="3" state="rryyy"/>
    </tlLogic>
    <tlLogic id="30" type="static" programID="0" offset="0">
        <phase duration="31" state="GG"/>
        <phase duration="3" state="yy"/>
    </tlLogic>
    <tlLogic id="4" type="static" programID="0" offset="0">
        <phase duration="31" state="GGrrr"/>
        <phase duration="3" state="yyrrr"/>
        <phase duration="31" state="rrGGG"/>
        <phase duration="3" state="rryyy"/>
    </tlLogic>
    <tlLogic id="5" type="static" programID="0" offset="0">
        <phase duration="31" state="GGrrr"/>
        <phase duration="3" state="yyrrr"/>
        <phase duration="31" state="rrGGG"/>
        <phase duration="3" state="rryyy"/>
    </tlLogic>
    <tlLogic id="6" type="static" programID="0" offset="0">
        <phase duration="31" state="GGrrr"/>
        <phase duration="3" state="yyrrr"/>
        <phase duration="31" state="rrGGG"/>
        <phase duration="3" state="rryyy"/>
    </tlLogic>
    <tlLogic id="7" type="static" programID="0" offset="0">
        <phase duration="31" state="GGrrr"/>
        <phase duration="3" state="yyrrr"/>
        <phase duration="31" state="rrGGG"/>
        <phase duration="3" state="rryyy"/>
    </tlLogic>
    <tlLogic id="8" type="static" programID="0" offset="0">
        <phase duration="31" state="GGrrr"/>
        <phase duration="3" state="yyrrr"/>
        <phase duration="31" state="rrGGG"/>
        <phase duration="3" state="rryyy"/>
    </tlLogic>
    <tlLogic id="9" type="static" programID="0" offset="0">
        <phase duration="31" state="GGrrr"/>
        <phase duration="3" state="yyrrr"/>
        <phase duration="31" state="rrGGG"/>