<?xml version="1.0" encoding="UTF-8"?>
<routes>

  <!-- Krauss Model -->
  <vType id="TypeManual" length="5.0" minGap="2.0" maxSpeed="30.0" vClass="passenger">
      <carFollowing-Krauss accel="3.0" decel="5.0" sigma="0" tau="1.64" />
  </vType>  


</routes>
