<?xml version="1.0" encoding="UTF-8"?>
<routes>

  <vType id="TypeACC1" length="5.0" minGap="2.0" maxSpeed="30.0" vClass="passenger">
      <carFollowing-ACC accel="3.0" decel="5.0" tau="1.2" controllerDelay="0.5" ComfAccel="2.0" ComfDecel="3.0" K_sc="0.4" K_v="1.0" K_g="5.0" V_int="30.0" />
  </vType>  

  <vType id="TypeCACC1" length="5.0" minGap="2.0" maxSpeed="30.0" vClass="passenger">
      <carFollowing-CACC strategy="1" accel="3.0" decel="5.0" tau="0.7" controllerDelay="0.4" ComfAccel="2.0" ComfDecel="3.0" K_sc="0.4" K_v="0.99" K_g="4.08" K_a="0.66" V_int="30.0" />
  </vType>

  <route id="route1" edges="1to2" />  

</routes>
