<?xml version="1.0" encoding="UTF-8"?>
<routes>
 
  <!-- passenger vehicle type -->
  <vType id="passenger" length="5.0" minGap="2.0" maxSpeed="30.0" vClass="passenger">
      <carFollowing-Krauss accel="3.0" decel="5.0" sigma="0" tau="1.64" />
  </vType>  

  <route id="route1" edges="1to2" />  
  <route id="route2" edges="2to1" />
  
  <vehicle id="veh0" type="passenger" color="1,0,0" route="route1" depart="0" departSpeed="0" departPos="0" departLane="first" />
  <vehicle id="veh1" type="passenger" color="1,0,0" route="route2" depart="0" departSpeed="0" departPos="0" departLane="first" />  

</routes>
