<?xml version="1.0" encoding="UTF-8"?>

<!-- generated on Wed Apr  6 11:10:08 2016 by SUMO polyconvert Version svn
<?xml version="1.0" encoding="UTF-8"?>

<configuration xmlns:xsi="http://www.w3.org/2001/XMLSchema-instance" xsi:noNamespaceSchemaLocation="http://sumo.dlr.de/xsd/polyconvertConfiguration.xsd">

    <input>
        <net-file value="02_stock_tl.net.xml"/>
        <osm-files value="01_stock.osm"/>
    </input>

    <output>
        <output-file value="stock.poly2.xml"/>
    </output>

    <processing>
        <poi-layer-offset value="5"/>
    </processing>

</configuration>
-->

<additional xmlns:xsi="http://www.w3.org/2001/XMLSchema-instance" xsi:noNamespaceSchemaLocation="http://sumo.dlr.de/xsd/additional_file.xsd">
    <location netOffset="-330369.67,-6577060.61" convBoundary="-1989.94,-6210.76,19495.36,10711.12" origBoundary="17.984545,59.246105,18.355471,59.401751" projParameter="+proj=utm +zone=34 +ellps=WGS84 +datum=WGS84 +units=m +no_defs"/>

    <poly id="100198415" type="unknown" color="51,128,255" fill="0" layer="-1.00" shape="862.66,1662.36 858.18,1654.63 889.66,1633.69 877.10,1621.04 867.89,1611.76 933.30,1545.08"/>
    <poly id="100198417" type="unknown" color="51,128,255" fill="1" layer="-1.00" shape="791.39,1710.53 784.93,1699.11 747.09,1652.87 764.39,1636.22 766.39,1638.46 811.34,1687.85 819.18,1690.79 791.39,1710.53"/>
    <poly id="100198419" type="unknown" color="51,128,255" fill="1" layer="-1.00" shape="877.10,1621.04 942.54,1555.16 959.84,1572.16 894.45,1639.29 889.66,1633.69 877.10,1621.04"/>
    <poly id="100198425" type="unknown" color="51,128,255" fill="0" layer="-1.00" shape="808.48,1603.11 815.66,1596.86 837.63,1577.70"/>
    <poly id="100198426" type="unknown" color="51,128,255" fill="1" layer="-1.00" shape="757.24,1661.91 768.70,1650.38 763.60,1646.02 752.81,1657.50 757.24,1661.91"/>
    <poly id="100198431" type="unknown" color="51,128,255" fill="1" layer="-1.00" shape="543.07,1722.93 532.96,1714.36 540.35,1701.76 542.60,1691.88 544.62,1682.28 548.68,1677.42 555.72,1674.35 568.91,1672.67 579.38,1667.94 589.57,1658.98 592.97,1659.74 614.28,1623.38 637.77,1587.83 650.68,1576.29 653.63,1590.94 640.08,1610.62 610.56,1652.14 577.57,1689.28 543.07,1722.93"/>
    <poly id="100198432" type="unknown" color="51,128,255" fill="1" layer="-1.00" shape="691.63,1568.03 689.35,1564.78 695.11,1556.88 698.99,1561.59 691.63,1568.03"/>
    <poly id="100198433" type="unknown" color="51,128,255" fill="0" layer="-1.00" shape="797.84,1709.89 749.92,1654.57 760.41,1642.81"/>
    <poly id="100198434" type="unknown" color="51,128,255" fill="0" layer="-1.00" shape="894.45,1639.29 889.66,1633.69"/>
    <poly id="100549175" type="unknown" color="51,128,255" fill="0" layer="-1.00" shape="4640.23,2364.35 4643.60,2364.50 4643.33,2368.94 4643.50,2372.75 4643.91,2375.02 4645.36,2376.79 4646.61,2377.50 4648.71,2380.00 4652.31,2382.13 4656.26,2384.86 4659.39,2386.71 4663.41,2387.60 4670.12,2387.31 4673.89,2386.08 4679.14,2383.86 4682.46,2380.55"/>
    <poly id="100549179" type="unknown" color="51,128,255" fill="0" layer="-1.00" shape="4683.23,2379.57 4688.74,2376.12 4693.36,2373.48 4696.82,2372.11 4703.42,2369.38 4708.56,2371.60 4711.95,2375.72 4711.84,2380.15 4714.25,2384.08"/>
    <poly id="100549182" type="unknown" color="51,128,255" fill="1" layer="-1.00" shape="4629.30,2366.04 4653.43,2365.60 4653.09,2340.29 4625.44,2344.09 4627.88,2351.00 4629.30,2366.04"/>
    <poly id="100549235" type="unknown" color="51,128,255" fill="0" layer="-1.00" shape="4718.68,2337.13 4716.47,2335.40 4714.00,2331.38 4712.90,2328.39 4711.66,2323.24 4710.68,2318.40 4705.44,2313.90 4693.93,2305.70 4686.84,2300.83 4681.49,2300.91 4674.93,2297.68 4668.67,2290.78 4661.45,2290.03 4654.49,2284.69 4648.24,2281.45 4644.52,2274.54 4640.06,2269.14 4633.67,2269.87 4629.62,2275.23 4625.78,2278.30 4622.24,2281.35 4625.34,2285.65 4628.56,2289.47 4626.65,2294.75 4629.94,2300.10 4630.26,2307.41 4631.97,2311.60 4635.39,2319.85 4634.95,2323.84 4633.44,2327.87 4633.98,2333.19 4632.03,2337.55 4631.29,2341.55 4627.56,2343.70"/>
    <poly id="100630904" type="unknown" color="51,128,255" fill="0" layer="-1.00" shape="1546.73,1840.74 1564.38,1846.77 1575.50,1854.28"/>
    <poly id="100630905" type="unknown" color="51,128,255" fill="0" layer="-1.00" shape="1492.72,1867.57 1479.91,1861.67 1465.15,1853.53"/>
    <poly id="100630907" type="unknown" color="51,128,255" fill="0" layer="-1.00" shape="1562.88,1942.72 1565.51,1933.88 1560.86,1931.12"/>
    <poly id="100630910" type="unknown" color="51,128,255" fill="1" layer="-1.00" shape="1592.72,1984.68 1578.67,1981.66 1575.68,1992.44 1439.96,1965.27 1443.18,1948.40 1462.34,1949.49 1464.02,1939.76 1467.99,1931.40 1470.53,1929.80 1483.24,1928.37 1504.13,1926.33 1532.24,1930.82 1559.25,1936.70 1581.79,1949.74 1607.76,1955.04 1604.81,1975.48 1592.72,1984.68"/>
    <poly id="100630913" type="unknown" color="51,128,255" fill="0" layer="-1.00" shape="1469.95,1871.78 1479.91,1861.67 1494.34,1851.25 1488.35,1848.23 1473.69,1849.00 1465.15,1853.53"/>
    <poly id="100630916" type="unknown" color="51,128,255" fill="0" layer="-1.00" shape="1395.71,1885.33 1396.16,1901.06"/>
    <poly id="100630920" type="unknown" color="51,128,255" fill="0" layer="-1.00" shape="1557.97,1857.55 1564.38,1846.77 1576.64,1835.08 1570.01,1832.91 1560.80,1833.07 1554.30,1835.34 1546.73,1840.74"/>
    <poly id="100630925" type="unknown" color="51,128,255" fill="0" layer="-1.00" shape="1557.16,1879.07 1544.92,1872.66 1526.76,1868.88 1527.16,1875.06"/>
    <poly id="100630927" type="unknown" color="51,128,255" fill="0" layer="-1.00" shape="1607.13,1845.13 1593.90,1804.86"/>
    <poly id="100630928" type="unknown" color="51,128,255" fill="0" layer="-1.00" shape="1561.94,1959.32 1560.26,1969.65 1473.24,1951.11"/>
    <poly id="100630929" type="unknown" color="51,128,255" fill="0" layer="-1.00" shape="1575.50,1854.28 1582.06,1859.49 1585.03,1864.81 1586.83,1872.08"/>
    <poly id="100630931" type="unknown" color="51,128,255" fill="0" layer="-1.00" shape="1518.36,1823.70 1524.92,1863.10 1526.76,1868.88"/>
    <poly id="100630933" type="unknown" color="51,128,255" fill="0" layer="-1.00" shape="1519.02,1884.45 1523.30,1880.31 1527.16,1875.06"/>
    <poly id="100630939" type="unknown" color="51,128,255" fill="0" layer="-1.00" shape="1565.66,1943.41 1561.94,1959.32"/>
    <poly id="100711455" type="unknown" color="51,128,255" fill="1" layer="-1.00" shape="517.37,1640.83 522.81,1636.00 525.21,1634.98 525.11,1632.69 515.84,1623.64 517.90,1621.87 507.12,1609.98 505.20,1611.60 497.95,1603.22 495.43,1601.65 492.62,1603.62 482.80,1602.83 482.84,1600.38 457.78,1597.39 456.70,1610.72 464.40,1612.05 462.71,1632.43 475.14,1633.40 476.68,1613.03 480.67,1613.46 480.76,1618.80 491.30,1618.63 494.07,1618.96 498.37,1622.90 495.26,1625.18 493.23,1624.20 491.64,1622.88 489.85,1623.89 489.67,1626.64 485.38,1630.03 484.72,1632.20 488.55,1635.85 487.07,1636.98 486.86,1639.13 488.62,1640.73 490.29,1640.51 491.60,1639.07 493.72,1642.03 495.88,1642.39 503.24,1635.96 502.69,1634.00 501.39,1632.23 503.76,1630.59 508.24,1635.12 506.93,1636.55 513.34,1642.99 515.34,1643.36 517.37,1640.83"/>
    <poly id="100711457" type="unknown" color="51,128,255" fill="1" layer="-1.00" shape="619.66,1536.10 648.24,1563.59 656.82,1551.87 659.16,1542.61 658.41,1532.57 654.72,1521.74 645.14,1509.35 618.39,1479.98 486.54,1310.77 480.36,1316.23 497.51,1339.15 531.77,1384.92 576.77,1445.07 581.40,1451.37 601.18,1478.30 614.34,1509.96 614.88,1511.28 619.66,1536.10"/>
    <poly id="100711459" type="unknown" color="51,128,255" fill="0" layer="-1.00" shape="433.08,1281.77 441.45,1276.03"/>
    <poly id="100977477" type="unknown" color="51,128,255" fill="0" layer="-1.00" shape="455.38,1466.47 463.83,1470.10 459.75,1479.19 460.49,1483.84 468.06,1478.49"/>
    <poly id="100977478" type="unknown" color="51,128,255" fill="0" layer="-1.00" shape="406.05,1573.44 396.86,1655.13"/>
    <poly id="100977481" type="unknown" color="51,128,255" fill="0" layer="-1.00" shape="396.86,1655.13 380.58,1665.89"/>
    <poly id="100977486" type="unknown" color="51,128,255" fill="0" layer="-1.00" shape="394.47,1341.68 373.35,1350.52 346.02,1368.53 324.10,1384.47 306.82,1401.43 300.77,1406.42"/>
    <poly id="100977489" type="unknown" color="51,128,255" fill="0" layer="-1.00" shape="468.06,1478.49 472.73,1473.38 478.31,1465.10"/>
    <poly id="100977497" type="unknown" color="51,128,255" fill="0" layer="-1.00" shape="858.62,1799.77 865.92,1800.80"/>
    <poly id="100977498" type="unknown" color="51,128,255" fill="0" layer="-1.00" shape="315.22,1319.95 324.38,1322.85 333.83,1327.00 336.03,1331.03 341.84,1334.77 347.21,1336.56 377.33,1338.55 394.47,1341.68 397.92,1340.78"/>
    <poly id="101827668" type="unknown" color="51,128,255" fill="0" layer="-1.00" shape="755.20,2129.83 779.21,2028.09"/>
    <poly id="102774216" type="unknown" color="51,128,255" fill="0" layer="-1.00" shape="3062.01,2477.86 3063.72,2477.17 3064.74,2476.77"/>
    <poly id="102774217" type="unknown" color="51,128,255" fill="0" layer="-1.00" shape="3029.56,2341.59 3043.00,2343.73"/>
    <poly id="102774218" type="unknown" color="51,128,255" fill="0" layer="-1.00" shape="3093.77,2460.09 3096.00,2462.39 3093.95,2463.49 3064.74,2476.77"/>
    <poly id="102774219" type="unknown" color="51,128,255" fill="0" layer="-1.00" shape="3072.25,2418.59 3074.17,2422.04"/>
    <poly id="102774220" type="unknown" color="51,128,255" fill="1" layer="-1.00" shape="3042.98,2432.90 3072.25,2418.59 3056.49,2393.23 3053.25,2397.79 3048.82,2402.03 3041.78,2405.51 3030.95,2405.29 3042.98,2432.90"/>
    <poly id="102774221" type="unknown" color="51,128,255" fill="0" layer="-1.00" shape="3028.25,2491.39 3028.59,2494.76 3029.21,2501.03 3028.68,2504.78 3016.70,2522.30"/>
    <poly id="102774222" type="unknown" color="51,128,255" fill="0" layer="-1.00" shape="2998.93,2338.75 2998.14,2343.15 2995.37,2353.92"/>
    <poly id="102774223" type="unknown" color="51,128,255" fill="0" layer="-1.00" shape="3021.67,2481.14 3025.87,2493.58 3028.59,2494.76"/>
    <poly id="102774224" type="unknown" color="51,128,255" fill="0" layer="-1.00" shape="3051.35,2296.11 3056.31,2302.03"/>
    <poly id="102774225" type="unknown" color="51,128,255" fill="1" layer="-1.00" shape="3151.41,2336.29 3159.41,2326.33 3175.89,2311.16 3191.86,2297.04 3194.99,2295.16 3197.87,2293.61 3200.87,2293.01 3203.78,2292.92 3203.53,2295.71 3202.68,2298.54 3199.60,2302.75 3166.57,2333.76 3156.86,2341.44 3154.96,2340.08 3153.26,2338.53 3151.41,2336.29"/>
    <poly id="102774226" type="unknown" color="51,128,255" fill="0" layer="-1.00" shape="3093.02,2405.79 3109.43,2433.34"/>
    <poly id="102774227" type="unknown" color="51,128,255" fill="0" layer="-1.00" shape="3109.43,2433.34 3113.34,2436.92"/>
    <poly id="102774228" type="unknown" color="51,128,255" fill="0" layer="-1.00" shape="3117.56,2312.89 3106.23,2323.45 3096.18,2333.34 3092.62,2338.82 3088.49,2350.40 3087.91,2355.15 3087.85,2361.91"/>
    <poly id="102774229" type="unknown" color="51,128,255" fill="0" layer="-1.00" shape="3054.50,2454.21 3018.98,2473.63 3021.67,2481.14"/>
    <poly id="102774230" type="unknown" color="51,128,255" fill="0" layer="-1.00" shape="2990.37,2420.90 2998.11,2423.65 3005.05,2430.03 3011.99,2445.54"/>
    <poly id="102774231" type="unknown" color="51,128,255" fill="0" layer="-1.00" shape="3088.05,2451.12 3093.77,2460.09"/>
    <poly id="102774232" type="unknown" color="51,128,255" fill="0" layer="-1.00" shape="3096.00,2462.39 3125.76,2444.74"/>
    <poly id="102774233" type="unknown" color="51,128,255" fill="0" layer="-1.00" shape="3064.47,2297.77 3076.15,2369.23"/>
    <poly id="102774234" type="unknown" color="51,128,255" fill="0" layer="-1.00" shape="3054.85,2461.49 3057.70,2465.47"/>
    <poly id="102774235" type="unknown" color="51,128,255" fill="0" layer="-1.00" shape="3061.29,2475.01 3063.72,2477.17"/>
    <poly id="102774236" type="unknown" color="51,128,255" fill="0" layer="-1.00" shape="3024.51,2471.66 3025.53,2472.70 3029.17,2476.27 3032.37,2480.03"/>
    <poly id="102774237" type="unknown" color="51,128,255" fill="0" layer="-1.00" shape="3057.70,2465.47 3061.29,2475.01"/>
    <poly id="102774238" type="unknown" color="51,128,255" fill="0" layer="-1.00" shape="3011.99,2445.54 3019.18,2462.92 3024.51,2471.66"/>
    <poly id="102774239" type="unknown" color="51,128,255" fill="0" layer="-1.00" shape="3042.98,2432.90 3044.52,2436.02"/>
    <poly id="102774240" type="unknown" color="51,128,255" fill="0" layer="-1.00" shape="2978.22,2331.45 2984.83,2332.82 2991.43,2334.66 2998.93,2338.75 3003.37,2337.59 3029.56,2341.59"/>
    <poly id="102774241" type="unknown" color="51,128,255" fill="0" layer="-1.00" shape="3023.28,2479.77 3028.25,2491.39"/>
    <poly id="102774242" type="unknown" color="51,128,255" fill="0" layer="-1.00" shape="3028.25,2491.39 3062.01,2477.86"/>
    <poly id="102774243" type="unknown" color="51,128,255" fill="0" layer="-1.00" shape="3107.42,2474.51 3101.48,2477.06 3069.90,2490.36 3064.97,2492.36 3054.52,2495.04 3042.89,2498.02 3036.02,2501.01 3029.21,2501.03"/>
    <poly id="102774244" type="unknown" color="51,128,255" fill="0" layer="-1.00" shape="3023.28,2479.77 3022.98,2477.76 3020.82,2474.55"/>
    <poly id="102774245" type="unknown" color="51,128,255" fill="0" layer="-1.00" shape="3170.25,2304.85 3175.89,2311.16"/>
    <poly id="102774246" type="unknown" color="51,128,255" fill="0" layer="-1.00" shape="3088.20,2445.45 3088.05,2451.12"/>
    <poly id="102844479" type="unknown" color="51,128,255" fill="0" layer="-1.00" shape="2145.21,2418.01 2140.53,2415.03 2135.55,2405.16 2132.36,2382.59"/>
    <poly id="102844481" type="unknown" color="51,128,255" fill="0" layer="-1.00" shape="2015.38,2381.54 1997.77,2375.76 1997.31,2350.05 1991.89,2345.58"/>
    <poly id="102844483" type="unknown" color="51,128,255" fill="0" layer="-1.00" shape="2487.30,2257.48 2534.81,2267.73 2607.18,2283.21 2660.72,2294.78 2670.40,2291.64 2681.81,2286.65"/>
    <poly id="102844484" type="unknown" color="51,128,255" fill="0" layer="-1.00" shape="2108.60,2359.77 2097.94,2362.59 2083.32,2363.41 2072.62,2361.36"/>
    <poly id="102845867" type="unknown" color="51,128,255" fill="0" layer="-1.00" shape="303.58,1306.59 297.90,1309.36 293.07,1312.62 289.49,1321.38 265.47,1354.51 260.34,1355.72"/>
    <poly id="103210672" type="unknown" color="51,128,255" fill="1" layer="-1.00" shape="3268.16,889.08 3276.93,848.56 3282.22,845.96 3280.93,842.27 3288.73,838.81 3295.38,853.55 3287.70,857.08 3283.43,874.68 3294.68,876.63 3296.28,867.70 3300.64,865.98 3315.14,897.79 3268.16,889.08"/>
    <poly id="103210677" type="unknown" color="51,128,255" fill="1" layer="-1.00" shape="3309.46,787.60 3324.55,790.83 3321.89,804.22 3332.71,826.99 3340.88,821.98 3342.38,813.78 3343.38,805.18 3341.77,803.27 3338.86,802.82 3340.98,792.85 3406.68,806.86 3381.82,926.42 3358.94,921.63 3306.29,803.44 3309.46,787.60"/>
    <poly id="103210681" type="unknown" color="51,128,255" fill="1" layer="-1.00" shape="3174.22,863.59 3180.18,835.70 3174.14,833.98 3174.04,828.35 3168.63,827.06 3160.13,870.17 3172.49,872.98 3174.22,863.59"/>
    <poly id="103210683" type="unknown" color="51,128,255" fill="1" layer="-1.00" shape="3153.95,781.75 3146.57,815.66 3158.24,816.82 3159.88,801.80 3171.59,803.87 3169.72,817.08 3174.06,818.42 3174.61,816.87 3179.26,818.34 3183.65,792.96 3182.06,791.50 3185.83,769.51 3179.99,768.84 3176.28,788.71 3168.55,786.91 3169.21,784.59 3153.95,781.75"/>
    <poly id="103210686" type="unknown" color="51,128,255" fill="1" layer="-1.00" shape="3137.45,849.59 3143.65,850.92 3138.31,878.25 3201.54,890.34 3225.79,774.01 3217.89,772.53 3178.92,765.23 3150.25,760.24 3146.66,779.47 3143.44,779.16 3126.36,846.46 3132.06,847.28 3132.50,850.48 3134.68,851.29 3137.45,849.59"/>
    <poly id="103210691" type="unknown" color="51,128,255" fill="0" layer="-1.00" shape="3249.61,774.08 3251.05,774.35 3253.69,772.83"/>
    <poly id="103210692" type="unknown" color="51,128,255" fill="1" layer="-1.00" shape="3291.86,783.16 3289.65,795.65 3268.62,791.61 3269.16,789.99 3262.97,789.20 3256.52,821.43 3251.69,824.17 3251.84,827.37 3273.55,830.85 3282.30,828.02 3274.98,811.09 3287.41,805.19 3331.67,901.95 3329.15,915.11 3226.18,893.76 3252.45,776.02 3291.86,783.16"/>
    <poly id="103223912" type="unknown" color="51,128,255" fill="1" layer="-1.00" shape="5148.07,456.68 5167.13,451.04 5183.88,454.46 5186.60,455.01 5195.51,460.40 5210.30,445.30 5211.93,438.50 5224.82,427.75 5227.77,425.29 5233.62,426.96 5234.93,420.60 5235.16,419.51 5239.34,402.48 5238.16,394.38 5236.66,388.02 5235.69,384.40 5235.57,380.58 5235.60,380.40 5236.33,376.83 5237.39,373.75 5237.86,372.96 5227.36,315.09 5223.93,314.69 5187.93,329.73 5184.86,326.00 5171.67,333.32 5165.90,333.57 5161.67,332.46 5157.92,336.59 5156.58,338.06 5156.20,338.19 5134.25,346.07 5112.42,355.39 5091.18,365.99 5088.42,367.49 5081.54,371.48 5071.42,377.38 5061.35,383.77 5049.67,391.72 5040.08,398.73 5031.08,405.84 5024.77,410.84 5036.81,427.79 5051.64,435.82 5072.20,442.62 5075.71,456.92 5069.46,459.94 5068.59,460.13 5057.72,460.79 5052.60,461.58 5013.69,473.11 4983.41,486.94 4977.18,498.77 4978.34,503.55 4990.25,512.84 4992.64,513.29 4994.78,513.88 4995.00,513.93 4997.30,514.77 4999.52,515.80 5001.64,517.00 5003.67,518.37 5005.57,519.91 5007.34,521.59 5008.65,522.97 5009.81,524.47 5010.84,526.07 5011.72,527.76 5012.43,529.51 5012.99,531.33 5013.37,533.18 5013.57,534.94 5013.63,536.68 5013.54,538.44 5013.30,540.17 5012.91,541.88 5012.54,543.08 5012.39,543.55 5011.72,545.16 5010.91,546.73 5009.98,548.20 5008.93,549.61 5007.76,550.92 5006.49,552.11 5005.80,552.67 5005.11,553.21 5003.66,554.18 5002.12,555.02 5000.52,555.74 5000.09,575.01 5001.15,577.08 5006.09,580.64 5009.34,582.97 5011.62,584.62 5014.00,585.30 5017.90,586.43 5018.41,586.57 5037.75,582.83 5058.77,578.06 5070.16,573.72 5096.63,561.01 5120.17,547.47 5135.91,532.35 5135.26,532.03 5128.94,528.92 5125.07,527.03 5122.04,522.17 5120.35,519.45 5115.73,512.03 5115.81,508.57 5116.07,497.56 5120.56,489.66 5122.35,486.71 5117.62,476.86 5115.99,473.48 5148.07,456.68"/>
    <poly id="103451412" type="unknown" color="51,128,255" fill="1" layer="-1.00" shape="3664.29,1773.87 3666.86,1771.53 3771.28,1769.56 3773.55,1772.66 3771.08,1786.05 3769.24,1785.83 3768.75,1788.59 3759.83,1787.31 3760.59,1783.07 3754.75,1783.11 3754.63,1787.38 3745.01,1787.65 3744.81,1783.08 3703.23,1783.22 3702.71,1785.23 3700.45,1786.10 3699.05,1785.54 3698.65,1783.42 3696.81,1783.20 3696.74,1785.03 3695.72,1786.30 3693.74,1786.39 3692.33,1785.68 3692.54,1783.53 3678.50,1784.15 3676.58,1782.10 3673.25,1782.86 3668.37,1807.49 3665.14,1810.53 3666.39,1811.24 3755.87,1798.32 3757.66,1797.17 3758.68,1792.54 3768.38,1794.10 3765.83,1807.57 3763.61,1809.20 3656.05,1822.91 3654.49,1820.68 3664.29,1773.87"/>
    <poly id="103453729" type="unknown" color="51,128,255" fill="0" layer="-1.00" shape="5173.90,1228.87 5169.24,1244.83"/>
    <poly id="103456445" type="unknown" color="51,128,255" fill="1" layer="-1.00" shape="3604.91,1706.19 3629.75,1711.20 3627.49,1719.08 3632.11,1719.65 3631.06,1723.66 3629.14,1725.12 3626.60,1726.45 3624.58,1725.93 3625.05,1722.70 3618.43,1721.46 3617.32,1727.62 3604.69,1725.58 3605.08,1723.88 3601.22,1723.13 3600.83,1724.53 3592.96,1723.04 3592.30,1721.85 3594.84,1710.13 3604.41,1712.01 3604.91,1706.19"/>
    <poly id="103456447" type="unknown" color="51,128,255" fill="1" layer="-1.00" shape="3600.41,1687.15 3627.38,1692.08 3626.61,1695.31 3635.09,1697.08 3635.16,1698.60 3641.52,1700.61 3641.96,1696.93 3647.06,1697.93 3646.38,1703.46 3644.98,1702.90 3642.91,1704.37 3642.83,1706.20 3644.29,1708.12 3648.76,1708.99 3647.95,1711.47 3644.86,1710.69 3638.85,1709.43 3637.48,1713.15 3632.84,1711.83 3634.54,1705.35 3631.43,1704.11 3631.76,1701.34 3625.28,1699.95 3624.34,1703.04 3600.76,1698.73 3601.22,1695.20 3599.35,1694.37 3600.14,1691.43 3600.41,1687.15"/>
    <poly id="103456448" type="unknown" color="51,128,255" fill="1" layer="-1.00" shape="3576.67,1717.65 3563.27,1715.34 3564.37,1709.02 3554.80,1706.70 3554.08,1711.31 3556.01,1713.36 3552.17,1713.07 3552.53,1710.61 3545.52,1709.01 3551.81,1679.41 3576.19,1684.47 3576.51,1682.40 3588.83,1684.60 3586.27,1696.01 3577.20,1694.74 3575.37,1705.34 3582.32,1706.87 3583.50,1709.41 3581.90,1714.82 3579.28,1714.32 3578.40,1718.65 3576.67,1717.65"/>
    <poly id="103526134" type="unknown" color="51,128,255" fill="1" layer="-1.00" shape="2268.70,1305.71 2268.64,1300.83 2238.54,1294.38 2237.14,1300.85 2233.12,1299.96 2232.92,1302.10 2225.25,1300.66 2223.05,1300.25 2223.58,1298.55 2208.79,1295.84 2208.85,1290.35 2210.33,1282.49 2212.36,1283.31 2212.83,1280.24 2274.43,1234.63 2279.39,1241.15 2273.25,1245.57 2275.10,1249.34 2239.78,1275.21 2222.75,1286.68 2222.23,1288.53 2233.49,1290.93 2235.93,1280.44 2268.44,1285.87 2269.80,1289.17 2271.20,1289.42 2280.77,1243.05 2288.32,1244.40 2287.93,1245.94 2295.97,1247.87 2282.22,1310.45 2274.34,1308.82 2274.42,1307.13 2268.70,1305.71"/>
    <poly id="103527932" type="unknown" color="51,128,255" fill="1" layer="-1.00" shape="3058.40,2233.58 3058.82,2228.34 3060.66,2223.87 3066.90,2216.75 3075.94,2211.75 3115.57,2191.96 3156.06,2181.85 3157.35,2187.99 3158.70,2191.84 3165.86,2220.06 3153.24,2223.67 3151.74,2217.33 3141.46,2219.91 3143.26,2225.94 3129.66,2229.58 3128.36,2224.45 3118.84,2227.01 3120.30,2232.29 3107.46,2235.90 3106.27,2229.55 3095.68,2232.30 3097.15,2237.73 3083.87,2241.67 3082.39,2235.79 3073.48,2238.46 3074.62,2243.45 3061.61,2246.38 3058.40,2233.58"/>
    <poly id="103570724" type="unknown" color="51,128,255" fill="1" layer="-1.00" shape="2940.63,2294.01 2968.44,2299.67 2983.90,2303.00 2986.70,2305.42 2988.17,2307.66 2987.65,2314.99 2986.26,2319.90 2985.64,2322.16 2980.57,2328.54 2978.22,2331.45 2977.01,2332.96 2946.30,2327.87 2944.11,2327.62 2941.15,2326.38 2939.75,2323.90 2939.36,2320.52 2940.75,2317.40 2938.32,2300.26 2937.65,2296.43 2938.94,2294.28 2940.63,2294.01"/>
    <poly id="103570725" type="unknown" color="51,128,255" fill="1" layer="-1.00" shape="3072.92,2272.67 3066.46,2274.76 3068.04,2284.94 3070.01,2284.59 3072.59,2284.13 3073.48,2286.99 3081.41,2282.98 3080.34,2274.45 3079.96,2271.41 3072.92,2272.67"/>
    <poly id="103570726" type="unknown" color="51,128,255" fill="0" layer="-1.00" shape="3017.97,2270.47 3020.30,2271.27 3028.06,2242.43 3027.75,2231.02 3029.83,2222.53 3033.97,2212.43 3037.06,2206.19 3041.04,2199.30 3048.40,2193.64 3069.91,2184.95 3102.97,2171.32 3120.99,2163.80 3156.38,2156.52 3209.92,2144.76 3230.55,2144.99 3235.38,2144.40 3256.70,2141.80 3334.72,2123.61 3344.34,2118.38 3365.10,2109.08 3377.09,2105.90 3455.48,2065.41 3537.05,2024.09 3585.49,1999.00 3593.63,1994.20 3598.24,1990.19 3603.13,1982.64 3607.58,1957.35"/>
    <poly id="103850696" type="unknown" color="51,128,255" fill="1" layer="-1.00" shape="2295.06,2368.33 2299.45,2368.29 2299.54,2381.88 2295.15,2381.92 2295.06,2368.33"/>
    <poly id="103850698" type="unknown" color="51,128,255" fill="0" layer="-1.00" shape="2581.84,2366.49 2592.26,2370.54"/>
    <poly id="103850699" type="unknown" color="51,128,255" fill="1" layer="-1.00" shape="2195.82,2349.83 2203.51,2349.68 2203.69,2359.38 2196.01,2359.53 2195.82,2349.83"/>
    <poly id="103850700" type="unknown" color="51,128,255" fill="0" layer="-1.00" shape="2468.90,2344.51 2455.59,2401.17"/>
    <poly id="103850703" type="unknown" color="51,128,255" fill="1" layer="-1.00" shape="2130.81,2346.91 2132.71,2377.33 2135.93,2377.12 2136.23,2382.02 2139.04,2381.84 2139.33,2386.52 2150.56,2385.82 2150.07,2377.95 2146.74,2378.15 2146.24,2369.99 2148.76,2369.83 2148.31,2362.55 2145.52,2362.72 2145.24,2358.26 2142.24,2358.45 2141.78,2351.11 2138.06,2351.34 2137.75,2346.47 2130.81,2346.91"/>
    <poly id="103850706" type="unknown" color="51,128,255" fill="0" layer="-1.00" shape="2668.40,2355.96 2691.26,2346.24 2755.24,2323.89"/>
    <poly id="103850711" type="unknown" color="51,128,255" fill="1" layer="-1.00" shape="2664.08,2269.49 2673.93,2271.19 2676.73,2255.14 2666.88,2253.43 2664.08,2269.49"/>
    <poly id="103850715" type="unknown" color="51,128,255" fill="0" layer="-1.00" shape="2592.80,2352.51 2642.94,2355.52 2668.40,2355.96"/>
    <poly id="103850717" type="unknown" color="51,128,255" fill="0" layer="-1.00" shape="2175.11,2322.66 2184.75,2248.83"/>
    <poly id="103850719" type="unknown" color="51,128,255" fill="1" layer="-1.00" shape="2291.02,2368.91 2281.06,2369.71 2281.80,2378.93 2291.77,2378.12 2291.02,2368.91"/>
    <poly id="103850725" type="unknown" color="51,128,255" fill="0" layer="-1.00" shape="2537.36,2348.14 2562.95,2350.16 2592.80,2352.51"/>
    <poly id="103850729" type="unknown" color="51,128,255" fill="0" layer="-1.00" shape="2584.23,2387.30 2592.80,2352.51 2599.60,2321.78 2607.18,2283.21 2620.34,2223.53"/>
    <poly id="103850731" type="unknown" color="51,128,255" fill="1" layer="-1.00" shape="2734.31,2279.42 2736.62,2266.60 2741.05,2267.48 2740.67,2271.07 2749.89,2272.82 2749.30,2275.62 2743.16,2274.64 2740.97,2275.81 2740.18,2280.32 2734.31,2279.42"/>
    <poly id="103850737" type="unknown" color="51,128,255" fill="0" layer="-1.00" shape="2562.95,2350.16 2565.27,2352.40 2584.83,2354.42"/>
    <poly id="103850738" type="unknown" color="51,128,255" fill="1" layer="-1.00" shape="2612.49,2340.86 2610.63,2350.82 2597.23,2349.55 2602.14,2327.35 2604.38,2326.03 2613.22,2328.01 2611.17,2336.98 2608.07,2336.62 2607.24,2340.52 2612.49,2340.86"/>
    <poly id="103850743" type="unknown" color="51,128,255" fill="1" layer="-1.00" shape="2307.13,2341.29 2312.91,2341.55 2312.51,2350.41 2306.72,2350.14 2307.13,2341.29"/>
    <poly id="103850746" type="unknown" color="51,128,255" fill="1" layer="-1.00" shape="2277.59,2347.18 2280.37,2331.81 2282.68,2329.77 2313.91,2331.37 2313.06,2339.87 2302.48,2339.07 2301.95,2341.41 2292.92,2340.54 2291.62,2347.79 2277.59,2347.18"/>
    <poly id="104041174" type="unknown" color="51,128,255" fill="1" layer="-1.00" shape="2780.95,2301.36 2784.28,2282.89 2778.93,2281.93 2780.66,2272.33 2776.43,2271.57 2774.04,2284.86 2779.86,2285.91 2777.19,2300.69 2780.95,2301.36"/>
    <poly id="104041178" type="unknown" color="51,128,255" fill="0" layer="-1.00" shape="2787.23,2316.65 2828.16,2328.46 2831.99,2328.81"/>
    <poly id="10433" type="unknown" color="51,128,255" fill="0" layer="-1.00" shape="852.98,2429.77 866.37,2373.80"/>
    <poly id="10435" type="unknown" color="51,128,255" fill="0" layer="-1.00" shape="617.20,1891.90 621.47,1866.77 622.90,1862.70 626.25,1859.20 636.16,1852.66 684.20,1816.72"/>
    <poly id="105054930" type="unknown" color="51,128,255" fill="0" layer="-1.00" shape="2831.99,2328.81 2831.64,2334.00 2833.74,2339.50 2838.47,2342.14 2843.86,2342.75"/>
    <poly id="105054931" type="unknown" color="51,128,255" fill="0" layer="-1.00" shape="2746.34,2376.57 2755.24,2323.89 2757.94,2310.93"/>
    <poly id="105054934" type="unknown" color="51,128,255" fill="0" layer="-1.00" shape="2848.38,2336.13 2843.86,2342.75"/>
    <poly id="105054939" type="unknown" color="51,128,255" fill="1" layer="-1.00" shape="2748.89,2373.78 2771.22,2256.62 2916.14,2286.60 2899.17,2366.89 2818.28,2364.89 2821.20,2352.08 2774.08,2343.71 2768.58,2367.62 2762.97,2373.31 2748.89,2373.78"/>
    <poly id="105054943" type="unknown" color="51,128,255" fill="0" layer="-1.00" shape="2899.36,2341.74 2890.48,2336.14"/>
    <poly id="105054945" type="unknown" color="51,128,255" fill="0" layer="-1.00" shape="2831.99,2328.81 2837.68,2321.78 2845.36,2286.70 2847.84,2284.93"/>
    <poly id="105054947" type="unknown" color="51,128,255" fill="0" layer="-1.00" shape="2890.48,2336.14 2861.19,2331.03"/>
    <poly id="105054948" type="unknown" color="51,128,255" fill="1" layer="-1.00" shape="2128.24,2141.90 2134.32,2143.21 2135.92,2135.75 2129.85,2134.45 2128.24,2141.90"/>
    <poly id="105054949" type="unknown" color="51,128,255" fill="1" layer="-1.00" shape="2771.22,2256.62 2159.36,2132.45 2130.73,2278.47 2132.72,2310.70 2137.52,2315.09 2273.91,2325.50 2317.41,2327.89 2356.38,2328.55 2384.95,2330.91 2473.12,2343.03 2526.32,2347.39 2523.77,2381.99 2546.10,2386.91 2550.50,2418.48 2591.19,2412.00 2598.06,2413.37 2634.83,2401.49 2640.31,2411.95 2672.69,2399.49 2703.72,2381.52 2706.11,2385.20 2748.89,2373.78 2771.22,2256.62"/>
    <poly id="105054955" type="unknown" color="51,128,255" fill="0" layer="-1.00" shape="2828.16,2328.46 2833.44,2345.22 2830.45,2355.08 2825.39,2359.78"/>
    <poly id="105057224" type="unknown" color="51,128,255" fill="1" layer="-1.00" shape="2329.12,1202.09 2318.35,1257.04 2302.47,1254.13 2305.43,1238.39 2309.28,1217.95 2306.95,1216.99 2305.76,1214.45 2305.95,1211.84 2306.64,1209.98 2308.14,1209.46 2309.98,1209.53 2320.34,1201.90 2320.86,1199.59 2322.95,1198.58 2325.53,1198.01 2327.75,1199.90 2329.12,1202.09"/>
    <poly id="105059811" type="unknown" color="51,128,255" fill="1" layer="-1.00" shape="3877.98,1507.27 3878.48,1515.19 3880.17,1518.77 3880.79,1525.92 3878.05,1526.34 3877.99,1524.97 3869.75,1525.33 3870.47,1538.13 3875.84,1538.49 3875.78,1540.64 3879.45,1540.78 3879.93,1551.75 3877.89,1553.98 3873.23,1552.50 3873.13,1553.57 3866.16,1551.59 3865.30,1552.69 3849.28,1550.19 3849.67,1548.65 3841.75,1546.65 3847.45,1517.75 3877.98,1507.27"/>
    <poly id="105059814" type="unknown" color="51,128,255" fill="1" layer="-1.00" shape="3822.00,1671.33 3853.44,1673.41 3855.51,1729.02 3822.76,1730.08 3822.27,1732.84 3809.64,1733.53 3812.70,1716.22 3814.49,1716.08 3822.00,1671.33"/>
    <poly id="105059819" type="unknown" color="51,128,255" fill="1" layer="-1.00" shape="3793.99,1746.59 3792.39,1745.48 3791.67,1743.31 3792.52,1737.80 3808.53,1653.95 3869.82,1659.31 3870.67,1698.75 3871.33,1728.89 3889.84,1728.75 3888.91,1697.72 3904.33,1697.19 3906.54,1744.26 3793.99,1746.59"/>