<?xml version="1.0" encoding="iso-8859-1"?>
<configuration xmlns:xsi="http://www.w3.org/2001/XMLSchema-instance" xsi:noNamespaceSchemaLocation="http://sumo.sf.net/xsd/sumoConfiguration.xsd">
 
    <input>
        <net-file value="1hello.net.xml"/>
        <route-files value="2hello.rou.xml"/>
    </input>

    <time>
        <begin value="0"/>
        <end value="-1"/>
        <step-length value="0.1" />
    </time>
    
    <processing>
        <time-to-teleport value="0" />
    </processing>

    <report>
        <verbose value="true"/>
    </report>

</configuration>
