<?xml version="1.0" encoding="UTF-8"?>

<!-- generated on Sun Oct 27 21:31:59 2013 by SUMO netconvert Version 0.17.1
<?xml version="1.0" encoding="UTF-8"?>

<configuration xmlns:xsi="http://www.w3.org/2001/XMLSchema-instance" xsi:noNamespaceSchemaLocation="http://sumo.sf.net/xsd/netconvertConfiguration.xsd">

    <input>
        <node-files value="hello.nod.xml"/>
        <edge-files value="hello.edg.xml"/>
    </input>

    <output>
        <output-file value="hello.net.xml"/>
    </output>

    <report>
        <verbose value="true"/>
    </report>

</configuration>
-->

<net version="0.13" xmlns:xsi="http://www.w3.org/2001/XMLSchema-instance" xsi:noNamespaceSchemaLocation="http://sumo.sf.net/xsd/net_file.xsd">

    <location netOffset="2500.00,500.00" convBoundary="0.00,0.00,4500.00,1000.00" origBoundary="-2500.00,-500.00,2000.00,500.00" projParameter="!"/>

    <edge id=":1_0" function="internal">
        <lane id=":1_0_0" index="0" speed="11.18" length="14.00" shape="-4.95,1.45 -4.14,0.09 -1.70,-0.87 2.36,-1.46 8.05,-1.65"/>
    </edge>
    <edge id=":1_1" function="internal">
        <lane id=":1_1_0" index="0" speed="11.18" length="4.82" shape="-1.65,1.45 -0.83,0.21 -0.00,-0.20 0.82,0.21 1.65,1.45"/>
    </edge>
    <edge id=":10_0" function="internal">
        <lane id=":10_0_0" index="0" speed="11.18" length="4.82" shape="4498.35,1.45 4499.17,0.21 4500.00,-0.20 4500.82,0.21 4501.65,1.45"/>
    </edge>
    <edge id=":10_1" function="internal">
        <lane id=":10_1_0" index="0" speed="11.18" length="14.00" shape="4491.95,-1.65 4497.64,-1.46 4501.70,-0.87 4504.14,0.09 4504.95,1.45"/>
    </edge>
    <edge id=":10_2" function="internal">
        <lane id=":10_2_0" index="0" speed="11.18" length="10.88" shape="4491.95,-1.65 4496.19,-1.46 4499.23,-0.87 4501.04,0.09 4501.65,1.45"/>
    </edge>
    <edge id=":11_0" function="internal">
        <lane id=":11_0_0" index="0" speed="11.18" length="16.10" shape="-4.95,508.05 -4.95,503.27 -4.95,500.00 -4.95,496.73 -4.95,491.95"/>
    </edge>
    <edge id=":11_1" function="internal">
        <lane id=":11_1_0" index="0" speed="14.53" length="8.84" shape="-1.65,508.05 -1.04,503.81 0.77,500.77 1.65,500.25"/>
    </edge>
    <edge id=":11_11" function="internal">
        <lane id=":11_11_0" index="0" speed="14.53" length="6.80" shape="1.65,500.25 3.81,498.96 8.05,498.35"/>
    </edge>
    <edge id=":11_2" function="internal">
        <lane id=":11_2_0" index="0" speed="11.18" length="2.41" shape="-1.65,508.05 -0.83,506.81 -0.00,506.40"/>
    </edge>
    <edge id=":11_12" function="internal">
        <lane id=":11_12_0" index="0" speed="11.18" length="2.41" shape="-0.00,506.40 0.82,506.81 1.65,508.05"/>
    </edge>
    <edge id=":11_3" function="internal">
        <lane id=":11_3_0" index="0" speed="14.53" length="5.00" shape="8.05,504.95 6.69,505.14 5.72,505.72 5.14,506.69 4.95,508.05"/>
    </edge>
    <edge id=":11_4" function="internal">
        <lane id=":11_4_0" index="0" speed="14.53" length="10.32" shape="8.05,501.65 5.25,502.05 3.25,503.25 2.05,505.25 1.65,508.05"/>
    </edge>
    <edge id=":11_5" function="internal">
        <lane id=":11_5_0" index="0" speed="14.53" length="6.80" shape="8.05,501.65 3.81,501.04 1.65,499.75"/>
    </edge>
    <edge id=":11_13" function="internal">
        <lane id=":11_13_0" index="0" speed="14.53" length="8.84" shape="1.65,499.75 0.77,499.22 -1.04,496.19 -1.65,491.95"/>
    </edge>
    <edge id=":11_6" function="internal">
        <lane id=":11_6_0" index="0" speed="17.88" length="2.41" shape="8.05,501.65 6.81,500.82 6.40,500.00"/>
    </edge>
    <edge id=":11_14" function="internal">
        <lane id=":11_14_0" index="0" speed="17.88" length="2.41" shape="6.40,500.00 6.81,499.18 8.05,498.35"/>
    </edge>
    <edge id=":11_7" function="internal">
        <lane id=":11_7_0" index="0" speed="14.53" length="5.00" shape="4.95,491.95 5.14,493.31 5.72,494.27 6.69,494.86 8.05,495.05"/>
    </edge>
    <edge id=":11_8" function="internal">
        <lane id=":11_8_0" index="0" speed="14.53" length="10.32" shape="1.65,491.95 2.05,494.75 3.25,496.75 5.25,497.95 8.05,498.35"/>
    </edge>
    <edge id=":11_9" function="internal">
        <lane id=":11_9_0" index="0" speed="11.18" length="16.10" shape="1.65,491.95 1.65,496.73 1.65,500.00 1.65,503.27 1.65,508.05"/>
    </edge>
    <edge id=":11_10" function="internal">
        <lane id=":11_10_0" index="0" speed="11.18" length="2.41" shape="1.65,491.95 0.83,493.19 0.00,493.60"/>
    </edge>
    <edge id=":11_15" function="internal">
        <lane id=":11_15_0" index="0" speed="11.18" length="2.41" shape="0.00,493.60 -0.82,493.19 -1.65,491.95"/>
    </edge>
    <edge id=":12_0" function="internal">
        <lane id=":12_0_0" index="0" speed="14.53" length="5.00" shape="495.05,508.05 494.86,506.69 494.28,505.73 493.31,505.14 491.95,504.95"/>
    </edge>
    <edge id=":12_1" function="internal">
        <lane id=":12_1_0" index="0" speed="11.18" length="16.10" shape="498.35,508.05 498.35,503.27 498.35,500.00 498.35,496.73 498.35,491.95"/>
    </edge>
    <edge id=":12_2" function="internal">
        <lane id=":12_2_0" index="0" speed="14.53" length="3.13" shape="498.35,508.05 498.79,504.95"/>
    </edge>
    <edge id=":12_18" function="internal">
        <lane id=":12_18_0" index="0" speed="14.53" length="12.51" shape="498.79,504.95 498.96,503.81 500.78,500.77 503.81,498.96 508.05,498.35"/>
    </edge>
    <edge id=":12_3" function="internal">
        <lane id=":12_3_0" index="0" speed="11.18" length="2.41" shape="498.35,508.05 499.18,506.81 500.00,506.40"/>
    </edge>
    <edge id=":12_19" function="internal">
        <lane id=":12_19_0" index="0" speed="11.18" length="2.41" shape="500.00,506.40 500.82,506.81 501.65,508.05"/>
    </edge>
    <edge id=":12_4" function="internal">
        <lane id=":12_4_0" index="0" speed="14.53" length="5.00" shape="508.05,504.95 506.69,505.14 505.73,505.72 505.14,506.69 504.95,508.05"/>
    </edge>
    <edge id=":12_5" function="internal">
        <lane id=":12_5_0" index="0" speed="17.88" length="16.10" shape="508.05,504.95 503.27,504.95 500.00,504.95 496.73,504.95 491.95,504.95"/>
    </edge>
    <edge id=":12_6" function="internal">
        <lane id=":12_6_0" index="0" speed="17.88" length="16.10" shape="508.05,501.65 503.27,501.65 500.00,501.65 496.73,501.65 491.95,501.65"/>
    </edge>
    <edge id=":12_7" function="internal">
        <lane id=":12_7_0" index="0" speed="14.53" length="6.80" shape="508.05,501.65 503.81,501.04 501.65,499.75"/>
    </edge>
    <edge id=":12_20" function="internal">
        <lane id=":12_20_0" index="0" speed="14.53" length="8.84" shape="501.65,499.75 500.77,499.22 498.96,496.19 498.35,491.95"/>
    </edge>
    <edge id=":12_8" function="internal">
        <lane id=":12_8_0" index="0" speed="17.88" length="2.41" shape="508.05,501.65 506.81,500.82 506.40,500.00"/>
    </edge>
    <edge id=":12_21" function="internal">
        <lane id=":12_21_0" index="0" speed="17.88" length="2.41" shape="506.40,500.00 506.81,499.18 508.05,498.35"/>
    </edge>
    <edge id=":12_9" function="internal">
        <lane id=":12_9_0" index="0" speed="14.53" length="5.00" shape="504.95,491.95 505.14,493.31 505.72,494.27 506.69,494.86 508.05,495.05"/>
    </edge>
    <edge id=":12_10" function="internal">
        <lane id=":12_10_0" index="0" speed="11.18" length="16.10" shape="501.65,491.95 501.65,496.73 501.65,500.00 501.65,503.27 501.65,508.05"/>
    </edge>
    <edge id=":12_11" function="internal">
        <lane id=":12_11_0" index="0" speed="14.53" length="3.13" shape="501.65,491.95 501.21,495.05"/>
    </edge>
    <edge id=":12_22" function="internal">
        <lane id=":12_22_0" index="0" speed="14.53" length="12.51" shape="501.21,495.05 501.04,496.19 499.22,499.23 496.19,501.04 491.95,501.65"/>
    </edge>
    <edge id=":12_12" function="internal">
        <lane id=":12_12_0" index="0" speed="11.18" length="2.41" shape="501.65,491.95 500.82,493.19 500.00,493.60"/>
    </edge>
    <edge id=":12_23" function="internal">
        <lane id=":12_23_0" index="0" speed="11.18" length="2.41" shape="500.00,493.60 499.18,493.19 498.35,491.95"/>
    </edge>
    <edge id=":12_13" function="internal">
        <lane id=":12_13_0" index="0" speed="14.53" length="5.00" shape="491.95,495.05 493.31,494.86 494.27,494.28 494.86,493.31 495.05,491.95"/>
    </edge>
    <edge id=":12_14" function="internal">
        <lane id=":12_14_0" index="0" speed="17.88" length="16.10" shape="491.95,495.05 496.73,495.05 500.00,495.05 503.27,495.05 508.05,495.05"/>
    </edge>
    <edge id=":12_15" function="internal">
        <lane id=":12_15_0" index="0" speed="17.88" length="16.10" shape="491.95,498.35 496.73,498.35 500.00,498.35 503.27,498.35 508.05,498.35"/>
    </edge>
    <edge id=":12_16" function="internal">
        <lane id=":12_16_0" index="0" speed="14.53" length="6.80" shape="491.95,498.35 496.19,498.96 498.35,500.25"/>
    </edge>
    <edge id=":12_24" function="internal">
        <lane id=":12_24_0" index="0" speed="14.53" length="8.84" shape="498.35,500.25 499.23,500.78 501.04,503.81 501.65,508.05"/>
    </edge>
    <edge id=":12_17" function="internal">
        <lane id=":12_17_0" index="0" speed="17.88" length="2.41" shape="491.95,498.35 493.19,499.18 493.60,500.00"/>
    </edge>
    <edge id=":12_25" function="internal">
        <lane id=":12_25_0" index="0" speed="17.88" length="2.41" shape="493.60,500.00 493.19,500.82 491.95,501.65"/>
    </edge>
    <edge id=":13_0" function="internal">
        <lane id=":13_0_0" index="0" speed="14.53" length="5.00" shape="995.05,508.05 994.86,506.69 994.27,505.73 993.31,505.14 991.95,504.95"/>
    </edge>
    <edge id=":13_1" function="internal">
        <lane id=":13_1_0" index="0" speed="11.18" length="16.10" shape="998.35,508.05 998.35,503.27 998.35,500.00 998.35,496.73 998.35,491.95"/>
    </edge>
    <edge id=":13_2" function="internal">
        <lane id=":13_2_0" index="0" speed="14.53" length="3.13" shape="998.35,508.05 998.79,504.95"/>
    </edge>
    <edge id=":13_18" function="internal">
        <lane id=":13_18_0" index="0" speed="14.53" length="12.51" shape="998.79,504.95 998.96,503.81 1000.78,500.77 1003.81,498.96 1008.05,498.35"/>
    </edge>
    <edge id=":13_3" function="internal">
        <lane id=":13_3_0" index="0" speed="11.18" length="2.41" shape="998.35,508.05 999.17,506.81 1000.00,506.40"/>
    </edge>
    <edge id=":13_19" function="internal">
        <lane id=":13_19_0" index="0" speed="11.18" length="2.41" shape="1000.00,506.40 1000.83,506.81 1001.65,508.05"/>
    </edge>
    <edge id=":13_4" function="internal">
        <lane id=":13_4_0" index="0" speed="14.53" length="5.00" shape="1008.05,504.95 1006.69,505.14 1005.73,505.72 1005.14,506.69 1004.95,508.05"/>
    </edge>
    <edge id=":13_5" function="internal">
        <lane id=":13_5_0" index="0" speed="17.88" length="16.10" shape="1008.05,504.95 1003.27,504.95 1000.00,504.95 996.73,504.95 991.95,504.95"/>
    </edge>
    <edge id=":13_6" function="internal">
        <lane id=":13_6_0" index="0" speed="17.88" length="16.10" shape="1008.05,501.65 1003.27,501.65 1000.00,501.65 996.73,501.65 991.95,501.65"/>
    </edge>
    <edge id=":13_7" function="internal">
        <lane id=":13_7_0" index="0" speed="14.53" length="6.80" shape="1008.05,501.65 1003.81,501.04 1001.65,499.75"/>
    </edge>
    <edge id=":13_20" function="internal">
        <lane id=":13_20_0" index="0" speed="14.53" length="8.84" shape="1001.65,499.75 1000.77,499.22 998.96,496.19 998.35,491.95"/>
    </edge>
    <edge id=":13_8" function="internal">
        <lane id=":13_8_0" index="0" speed="17.88" length="2.41" shape="1008.05,501.65 1006.81,500.82 1006.40,500.00"/>
    </edge>
    <edge id=":13_21" function="internal">
        <lane id=":13_21_0" index="0" speed="17.88" length="2.41" shape="1006.40,500.00 1006.81,499.18 1008.05,498.35"/>
    </edge>
    <edge id=":13_9" function="internal">
        <lane id=":13_9_0" index="0" speed="14.53" length="5.00" shape="1004.95,491.95 1005.14,493.31 1005.73,494.27 1006.69,494.86 1008.05,495.05"/>
    </edge>
    <edge id=":13_10" function="internal">
        <lane id=":13_10_0" index="0" speed="11.18" length="16.10" shape="1001.65,491.95 1001.65,496.73 1001.65,500.00 1001.65,503.27 1001.65,508.05"/>
    </edge>
    <edge id=":13_11" function="internal">
        <lane id=":13_11_0" index="0" speed="14.53" length="3.13" shape="1001.65,491.95 1001.21,495.05"/>
    </edge>
    <edge id=":13_22" function="internal">
        <lane id=":13_22_0" index="0" speed="14.53" length="12.51" shape="1001.21,495.05 1001.04,496.19 999.22,499.23 996.19,501.04 991.95,501.65"/>
    </edge>
    <edge id=":13_12" function="internal">
        <lane id=":13_12_0" index="0" speed="11.18" length="2.41" shape="1001.65,491.95 1000.83,493.19 1000.00,493.60"/>
    </edge>
    <edge id=":13_23" function="internal">
        <lane id=":13_23_0" index="0" speed="11.18" length="2.41" shape="1000.00,493.60 999.17,493.19 998.35,491.95"/>
    </edge>
    <edge id=":13_13" function="internal">
        <lane id=":13_13_0" index="0" speed="14.53" length="5.00" shape="991.95,495.05 993.31,494.86 994.27,494.28 994.86,493.31 995.05,491.95"/>
    </edge>
    <edge id=":13_14" function="internal">
        <lane id=":13_14_0" index="0" speed="17.88" length="16.10" shape="991.95,495.05 996.73,495.05 1000.00,495.05 1003.27,495.05 1008.05,495.05"/>
    </edge>
    <edge id=":13_15" function="internal">
        <lane id=":13_15_0" index="0" speed="17.88" length="16.10" shape="991.95,498.35 996.73,498.35 1000.00,498.35 1003.27,498.35 1008.05,498.35"/>
    </edge>
    <edge id=":13_16" function="internal">
        <lane id=":13_16_0" index="0" speed="14.53" length="6.80" shape="991.95,498.35 996.19,498.96 998.35,500.25"/>
    </edge>
    <edge id=":13_24" function="internal">
        <lane id=":13_24_0" index="0" speed="14.53" length="8.84" shape="998.35,500.25 999.23,500.78 1001.04,503.81 1001.65,508.05"/>
    </edge>
    <edge id=":13_17" function="internal">
        <lane id=":13_17_0" index="0" speed="17.88" length="2.41" shape="991.95,498.35 993.19,499.18 993.60,500.00"/>
    </edge>
    <edge id=":13_25" function="internal">
        <lane id=":13_25_0" index="0" speed="17.88" length="2.41" shape="993.60,500.00 993.19,500.82 991.95,501.65"/>
    </edge>
    <edge id=":14_0" function="internal">
        <lane id=":14_0_0" index="0" speed="14.53" length="5.00" shape="1495.05,508.05 1494.86,506.69 1494.27,505.73 1493.31,505.14 1491.95,504.95"/>
    </edge>
    <edge id=":14_1" function="internal">
        <lane id=":14_1_0" index="0" speed="11.18" length="16.10" shape="1498.35,508.05 1498.35,503.27 1498.35,500.00 1498.35,496.73 1498.35,491.95"/>
    </edge>
    <edge id=":14_2" function="internal">
        <lane id=":14_2_0" index="0" speed="14.53" length="3.13" shape="1498.35,508.05 1498.79,504.95"/>
    </edge>
    <edge id=":14_18" function="internal">
        <lane id=":14_18_0" index="0" speed="14.53" length="12.51" shape="1498.79,504.95 1498.96,503.81 1500.77,500.77 1503.81,498.96 1508.05,498.35"/>
    </edge>
    <edge id=":14_3" function="internal">
        <lane id=":14_3_0" index="0" speed="11.18" length="2.41" shape="1498.35,508.05 1499.18,506.81 1500.00,506.40"/>
    </edge>
    <edge id=":14_19" function="internal">
        <lane id=":14_19_0" index="0" speed="11.18" length="2.41" shape="1500.00,506.40 1500.83,506.81 1501.65,508.05"/>
    </edge>
    <edge id=":14_4" function="internal">
        <lane id=":14_4_0" index="0" speed="14.53" length="5.00" shape="1508.05,504.95 1506.69,505.14 1505.72,505.72 1505.14,506.69 1504.95,508.05"/>
    </edge>
    <edge id=":14_5" function="internal">
        <lane id=":14_5_0" index="0" speed="17.88" length="16.10" shape="1508.05,504.95 1503.27,504.95 1500.00,504.95 1496.73,504.95 1491.95,504.95"/>
    </edge>
    <edge id=":14_6" function="internal">
        <lane id=":14_6_0" index="0" speed="17.88" length="16.10" shape="1508.05,501.65 1503.27,501.65 1500.00,501.65 1496.73,501.65 1491.95,501.65"/>
    </edge>
    <edge id=":14_7" function="internal">
        <lane id=":14_7_0" index="0" speed="14.53" length="6.80" shape="1508.05,501.65 1503.81,501.04 1501.65,499.75"/>
    </edge>
    <edge id=":14_20" function="internal">
        <lane id=":14_20_0" index="0" speed="14.53" length="8.84" shape="1501.65,499.75 1500.78,499.22 1498.96,496.19 1498.35,491.95"/>
    </edge>
    <edge id=":14_8" function="internal">
        <lane id=":14_8_0" index="0" speed="17.88" length="2.41" shape="1508.05,501.65 1506.81,500.82 1506.40,500.00"/>
    </edge>
    <edge id=":14_21" function="internal">
        <lane id=":14_21_0" index="0" speed="17.88" length="2.41" shape="1506.40,500.00 1506.81,499.18 1508.05,498.35"/>
    </edge>
    <edge id=":14_9" function="internal">
        <lane id=":14_9_0" index="0" speed="14.53" length="5.00" shape="1504.95,491.95 1505.14,493.31 1505.73,494.27 1506.69,494.86 1508.05,495.05"/>
    </edge>
    <edge id=":14_10" function="internal">
        <lane id=":14_10_0" index="0" speed="11.18" length="16.10" shape="1501.65,491.95 1501.65,496.73 1501.65,500.00 1501.65,503.27 1501.65,508.05"/>
    </edge>
    <edge id=":14_11" function="internal">
        <lane id=":14_11_0" index="0" speed="14.53" length="3.13" shape="1501.65,491.95 1501.21,495.05"/>
    </edge>
    <edge id=":14_22" function="internal">
        <lane id=":14_22_0" index="0" speed="14.53" length="12.51" shape="1501.21,495.05 1501.04,496.19 1499.23,499.23 1496.19,501.04 1491.95,501.65"/>
    </edge>
    <edge id=":14_12" function="internal">
        <lane id=":14_12_0" index="0" speed="11.18" length="2.41" shape="1501.65,491.95 1500.82,493.19 1500.00,493.60"/>
    </edge>
    <edge id=":14_23" function="internal">
        <lane id=":14_23_0" index="0" speed="11.18" length="2.41" shape="1500.00,493.60 1499.17,493.19 1498.35,491.95"/>
    </edge>
    <edge id=":14_13" function="internal">
        <lane id=":14_13_0" index="0" speed="14.53" length="5.00" shape="1491.95,495.05 1493.31,494.86 1494.28,494.28 1494.86,493.31 1495.05,491.95"/>
    </edge>
    <edge id=":14_14" function="internal">
        <lane id=":14_14_0" index="0" speed="17.88" length="16.10" shape="1491.95,495.05 1496.73,495.05 1500.00,495.05 1503.27,495.05 1508.05,495.05"/>
    </edge>
    <edge id=":14_15" function="internal">
        <lane id=":14_15_0" index="0" speed="17.88" length="16.10" shape="1491.95,498.35 1496.73,498.35 1500.00,498.35 1503.27,498.35 1508.05,498.35"/>
    </edge>
    <edge id=":14_16" function="internal">
        <lane id=":14_16_0" index="0" speed="14.53" length="6.80" shape="1491.95,498.35 1496.19,498.96 1498.35,500.25"/>
    </edge>
    <edge id=":14_24" function="internal">
        <lane id=":14_24_0" index="0" speed="14.53" length="8.84" shape="1498.35,500.25 1499.22,500.78 1501.04,503.81 1501.65,508.05"/>
    </edge>
    <edge id=":14_17" function="internal">
        <lane id=":14_17_0" index="0" speed="17.88" length="2.41" shape="1491.95,498.35 1493.19,499.18 1493.60,500.00"/>
    </edge>
    <edge id=":14_25" function="internal">
        <lane id=":14_25_0" index="0" speed="17.88" length="2.41" shape="1493.60,500.00 1493.19,500.82 1491.95,501.65"/>
    </edge>
    <edge id=":15_0" function="internal">
        <lane id=":15_0_0" index="0" speed="14.53" length="5.00" shape="1995.05,508.05 1994.86,506.69 1994.27,505.73 1993.31,505.14 1991.95,504.95"/>
    </edge>
    <edge id=":15_1" function="internal">
        <lane id=":15_1_0" index="0" speed="11.18" length="16.10" shape="1998.35,508.05 1998.35,503.27 1998.35,500.00 1998.35,496.73 1998.35,491.95"/>
    </edge>
    <edge id=":15_2" function="internal">
        <lane id=":15_2_0" index="0" speed="14.53" length="3.13" shape="1998.35,508.05 1998.79,504.95"/>
    </edge>
    <edge id=":15_18" function="internal">
        <lane id=":15_18_0" index="0" speed="14.53" length="12.51" shape="1998.79,504.95 1998.96,503.81 2000.77,500.77 2003.81,498.96 2008.05,498.35"/>
    </edge>
    <edge id=":15_3" function="internal">
        <lane id=":15_3_0" index="0" speed="11.18" length="2.41" shape="1998.35,508.05 1999.17,506.81 2000.00,506.40"/>
    </edge>
    <edge id=":15_19" function="internal">
        <lane id=":15_19_0" index="0" speed="11.18" length="2.41" shape="2000.00,506.40 2000.83,506.81 2001.65,508.05"/>
    </edge>
    <edge id=":15_4" function="internal">
        <lane id=":15_4_0" index="0" speed="14.53" length="5.00" shape="2008.05,504.95 2006.69,505.14 2005.72,505.72 2005.14,506.69 2004.95,508.05"/>
    </edge>
    <edge id=":15_5" function="internal">
        <lane id=":15_5_0" index="0" speed="17.88" length="16.10" shape="2008.05,504.95 2003.27,504.95 2000.00,504.95 1996.73,504.95 1991.95,504.95"/>
    </edge>
    <edge id=":15_6" function="internal">
        <lane id=":15_6_0" index="0" speed="17.88" length="16.10" shape="2008.05,501.65 2003.27,501.65 2000.00,501.65 1996.73,501.65 1991.95,501.65"/>
    </edge>
    <edge id=":15_7" function="internal">
        <lane id=":15_7_0" index="0" speed="14.53" length="6.80" shape="2008.05,501.65 2003.81,501.04 2001.65,499.75"/>
    </edge>
    <edge id=":15_20" function="internal">
        <lane id=":15_20_0" index="0" speed="14.53" length="8.84" shape="2001.65,499.75 2000.78,499.22 1998.96,496.19 1998.35,491.95"/>
    </edge>
    <edge id=":15_8" function="internal">
        <lane id=":15_8_0" index="0" speed="17.88" length="2.41" shape="2008.05,501.65 2006.81,500.82 2006.40,500.00"/>
    </edge>
    <edge id=":15_21" function="internal">
        <lane id=":15_21_0" index="0" speed="17.88" length="2.41" shape="2006.40,500.00 2006.81,499.18 2008.05,498.35"/>
    </edge>
    <edge id=":15_9" function="internal">
        <lane id=":15_9_0" index="0" speed="14.53" length="5.00" shape="2004.95,491.95 2005.14,493.31 2005.73,494.27 2006.69,494.86 2008.05,495.05"/>
    </edge>
    <edge id=":15_10" function="internal">
        <lane id=":15_10_0" index="0" speed="11.18" length="16.10" shape="2001.65,491.95 2001.65,496.73 2001.65,500.00 2001.65,503.27 2001.65,508.05"/>
    </edge>
    <edge id=":15_11" function="internal">
        <lane id=":15_11_0" index="0" speed="14.53" length="3.13" shape="2001.65,491.95 2001.21,495.05"/>
    </edge>
    <edge id=":15_22" function="internal">
        <lane id=":15_22_0" index="0" speed="14.53" length="12.51" shape="2001.21,495.05 2001.04,496.19 1999.23,499.23 1996.19,501.04 1991.95,501.65"/>
    </edge>
    <edge id=":15_12" function="internal">
        <lane id=":15_12_0" index="0" speed="11.18" length="2.41" shape="2001.65,491.95 2000.83,493.19 2000.00,493.60"/>
    </edge>
    <edge id=":15_23" function="internal">
        <lane id=":15_23_0" index="0" speed="11.18" length="2.41" shape="2000.00,493.60 1999.17,493.19 1998.35,491.95"/>
    </edge>
    <edge id=":15_13" function="internal">
        <lane id=":15_13_0" index="0" speed="14.53" length="5.00" shape="1991.95,495.05 1993.31,494.86 1994.28,494.28 1994.86,493.31 1995.05,491.95"/>
    </edge>
    <edge id=":15_14" function="internal">
        <lane id=":15_14_0" index="0" speed="17.88" length="16.10" shape="1991.95,495.05 1996.73,495.05 2000.00,495.05 2003.27,495.05 2008.05,495.05"/>
    </edge>
    <edge id=":15_15" function="internal">
        <lane id=":15_15_0" index="0" speed="17.88" length="16.10" shape="1991.95,498.35 1996.73,498.35 2000.00,498.35 2003.27,498.35 2008.05,498.35"/>
    </edge>
    <edge id=":15_16" function="internal">
        <lane id=":15_16_0" index="0" speed="14.53" length="6.80" shape="1991.95,498.35 1996.19,498.96 1998.35,500.25"/>
    </edge>
    <edge id=":15_24" function="internal">
        <lane id=":15_24_0" index="0" speed="14.53" length="8.84" shape="1998.35,500.25 1999.22,500.78 2001.04,503.81 2001.65,508.05"/>
    </edge>
    <edge id=":15_17" function="internal">
        <lane id=":15_17_0" index="0" speed="17.88" length="2.41" shape="1991.95,498.35 1993.19,499.18 1993.60,500.00"/>
    </edge>
    <edge id=":15_25" function="internal">
        <lane id=":15_25_0" index="0" speed="17.88" length="2.41" shape="1993.60,500.00 1993.19,500.82 1991.95,501.65"/>
    </edge>
    <edge id=":16_0" function="internal">
        <lane id=":16_0_0" index="0" speed="14.53" length="5.00" shape="2495.05,508.05 2494.86,506.69 2494.28,505.73 2493.31,505.14 2491.95,504.95"/>
    </edge>
    <edge id=":16_1" function="internal">
        <lane id=":16_1_0" index="0" speed="11.18" length="16.10" shape="2498.35,508.05 2498.35,503.27 2498.35,500.00 2498.35,496.73 2498.35,491.95"/>
    </edge>
    <edge id=":16_2" function="internal">
        <lane id=":16_2_0" index="0" speed="14.53" length="3.13" shape="2498.35,508.05 2498.79,504.95"/>
    </edge>
    <edge id=":16_18" function="internal">
        <lane id=":16_18_0" index="0" speed="14.53" length="12.51" shape="2498.79,504.95 2498.96,503.81 2500.77,500.77 2503.81,498.96 2508.05,498.35"/>
    </edge>
    <edge id=":16_3" function="internal">
        <lane id=":16_3_0" index="0" speed="11.18" length="2.41" shape="2498.35,508.05 2499.17,506.81 2500.00,506.40"/>
    </edge>
    <edge id=":16_19" function="internal">
        <lane id=":16_19_0" index="0" speed="11.18" length="2.41" shape="2500.00,506.40 2500.82,506.81 2501.65,508.05"/>
    </edge>
    <edge id=":16_4" function="internal">
        <lane id=":16_4_0" index="0" speed="14.53" length="5.00" shape="2508.05,504.95 2506.69,505.14 2505.72,505.72 2505.14,506.69 2504.95,508.05"/>
    </edge>
    <edge id=":16_5" function="internal">
        <lane id=":16_5_0" index="0" speed="17.88" length="16.10" shape="2508.05,504.95 2503.27,504.95 2500.00,504.95 2496.73,504.95 2491.95,504.95"/>
    </edge>
    <edge id=":16_6" function="internal">
        <lane id=":16_6_0" index="0" speed="17.88" length="16.10" shape="2508.05,501.65 2503.27,501.65 2500.00,501.65 2496.73,501.65 2491.95,501.65"/>
    </edge>
    <edge id=":16_7" function="internal">
        <lane id=":16_7_0" index="0" speed="14.53" length="6.80" shape="2508.05,501.65 2503.81,501.04 2501.65,499.75"/>
    </edge>
    <edge id=":16_20" function="internal">
        <lane id=":16_20_0" index="0" speed="14.53" length="8.84" shape="2501.65,499.75 2500.78,499.22 2498.96,496.19 2498.35,491.95"/>
    </edge>
    <edge id=":16_8" function="internal">
        <lane id=":16_8_0" index="0" speed="17.88" length="2.41" shape="2508.05,501.65 2506.81,500.82 2506.40,500.00"/>
    </edge>
    <edge id=":16_21" function="internal">
        <lane id=":16_21_0" index="0" speed="17.88" length="2.41" shape="2506.40,500.00 2506.81,499.18 2508.05,498.35"/>
    </edge>
    <edge id=":16_9" function="internal">
        <lane id=":16_9_0" index="0" speed="14.53" length="5.00" shape="2504.95,491.95 2505.14,493.31 2505.72,494.27 2506.69,494.86 2508.05,495.05"/>
    </edge>
    <edge id=":16_10" function="internal">
        <lane id=":16_10_0" index="0" speed="11.18" length="16.10" shape="2501.65,491.95 2501.65,496.73 2501.65,500.00 2501.65,503.27 2501.65,508.05"/>
    </edge>
    <edge id=":16_11" function="internal">
        <lane id=":16_11_0" index="0" speed="14.53" length="3.13" shape="2501.65,491.95 2501.21,495.05"/>
    </edge>
    <edge id=":16_22" function="internal">
        <lane id=":16_22_0" index="0" speed="14.53" length="12.51" shape="2501.21,495.05 2501.04,496.19 2499.23,499.23 2496.19,501.04 2491.95,501.65"/>
    </edge>
    <edge id=":16_12" function="internal">
        <lane id=":16_12_0" index="0" speed="11.18" length="2.41" shape="2501.65,491.95 2500.83,493.19 2500.00,493.60"/>
    </edge>
    <edge id=":16_23" function="internal">
        <lane id=":16_23_0" index="0" speed="11.18" length="2.41" shape="2500.00,493.60 2499.18,493.19 2498.35,491.95"/>
    </edge>
    <edge id=":16_13" function="internal">
        <lane id=":16_13_0" index="0" speed="14.53" length="5.00" shape="2491.95,495.05 2493.31,494.86 2494.28,494.28 2494.86,493.31 2495.05,491.95"/>
    </edge>
    <edge id=":16_14" function="internal">
        <lane id=":16_14_0" index="0" speed="17.88" length="16.10" shape="2491.95,495.05 2496.73,495.05 2500.00,495.05 2503.27,495.05 2508.05,495.05"/>
    </edge>
    <edge id=":16_15" function="internal">
        <lane id=":16_15_0" index="0" speed="17.88" length="16.10" shape="2491.95,498.35 2496.73,498.35 2500.00,498.35 2503.27,498.35 2508.05,498.35"/>
    </edge>
    <edge id=":16_16" function="internal">
        <lane id=":16_16_0" index="0" speed="14.53" length="6.80" shape="2491.95,498.35 2496.19,498.96 2498.35,500.25"/>
    </edge>
    <edge id=":16_24" function="internal">
        <lane id=":16_24_0" index="0" speed="14.53" length="8.84" shape="2498.35,500.25 2499.22,500.78 2501.04,503.81 2501.65,508.05"/>
    </edge>
    <edge id=":16_17" function="internal">
        <lane id=":16_17_0" index="0" speed="17.88" length="2.41" shape="2491.95,498.35 2493.19,499.18 2493.60,500.00"/>
    </edge>
    <edge id=":16_25" function="internal">
        <lane id=":16_25_0" index="0" speed="17.88" length="2.41" shape="2493.60,500.00 2493.19,500.82 2491.95,501.65"/>
    </edge>
    <edge id=":17_0" function="internal">
        <lane id=":17_0_0" index="0" speed="14.53" length="5.00" shape="2995.05,508.05 2994.86,506.69 2994.28,505.73 2993.31,505.14 2991.95,504.95"/>
    </edge>
    <edge id=":17_1" function="internal">
        <lane id=":17_1_0" index="0" speed="11.18" length="16.10" shape="2998.35,508.05 2998.35,503.27 2998.35,500.00 2998.35,496.73 2998.35,491.95"/>
    </edge>
    <edge id=":17_2" function="internal">
        <lane id=":17_2_0" index="0" speed="14.53" length="3.13" shape="2998.35,508.05 2998.79,504.95"/>
    </edge>
    <edge id=":17_18" function="internal">
        <lane id=":17_18_0" index="0" speed="14.53" length="12.51" shape="2998.79,504.95 2998.96,503.81 3000.77,500.77 3003.81,498.96 3008.05,498.35"/>
    </edge>
    <edge id=":17_3" function="internal">