<?xml version="1.0" encoding="UTF-8"?>
<routes>
<!--routes xmlns:xsi="http://www.w3.org/2001/XMLSchema-instance" xsi:noNamespaceSchemaLocation="http://sumo.sf.net/xsd/routes_file.xsd"-->

  <!-- ACC vehicle -->
  <vType id="TypeACC" length="5.0" minGap="2.0" maxSpeed="30.0" >
      <carFollowing-Krauss MaxAccel="3.0" MaxDecel="5.0" T_g="1.54" tau="0.5" ComfAccel="2.0" ComfDecel="3.0" K_sc="0.4" K_v="1.0" K_g="5.0" V_int="30.0" />
  </vType>  
  
    <!-- CACC vehicle -->
  <vType id="TypeCACC" length="5.0" minGap="2.0" maxSpeed="30.0" >
      <carFollowing-CACC MaxAccel="3.0" MaxDecel="5.0" T_g="0.71" tau="0.4" ComfAccel="2.0" ComfDecel="3.0" K_sc="0.4" K_v="0.99" K_g="4.08" K_a="0.66" V_int="30.0" />
  </vType>

  <!-- Krauss vehicle -->
  <vType id="TypeKrauss" length="5.0" minGap="2.0" maxSpeed="30.0" >
      <carFollowing-Krauss accel="3.0" decel="5.0" sigma="0" tau="1.64"/>
  </vType>

  <route id="route1" edges="1to2 2to3 3to4 4to5 5to6 6to7 7to8" />

</routes>
