
<configuration>
 
    <input>
        <net-file value="example.net.xml"/>
        <route-files value="example.rou.xml"/>
    </input>

    <time>
        <begin value="0"/>
        <end value="-1"/>
        <step-length value="1" />
    </time>

</configuration>
