<?xml version="1.0" encoding="UTF-8"?>

<!-- generated on Wed Sep 17 06:05:19 2014 by SUMO netgenerate Version svn
<?xml version="1.0" encoding="UTF-8"?>

<configuration xmlns:xsi="http://www.w3.org/2001/XMLSchema-instance" xsi:noNamespaceSchemaLocation="http://sumo-sim.org/xsd/netgenerateConfiguration.xsd">

    <grid_network>
        <grid value="true"/>
        <grid.number value="3"/>
        <grid.length value="300"/>
    </grid_network>

    <output>
        <output-file value="hello.net.xml"/>
    </output>

    <processing>
        <no-internal-links value="true"/>
    </processing>

</configuration>
-->

<net version="0.13" xmlns:xsi="http://www.w3.org/2001/XMLSchema-instance" xsi:noNamespaceSchemaLocation="http://sumo-sim.org/xsd/net_file.xsd">

    <location netOffset="0.00,0.00" convBoundary="0.00,0.00,600.00,600.00" origBoundary="0.00,0.00,600.00,600.00" projParameter="!"/>

    <edge id="0/0to0/1" from="0/0" to="0/1" priority="-1">
        <lane id="0/0to0/1_0" index="0" speed="13.90" length="300.00" shape="1.65,3.25 1.65,295.25"/>
    </edge>
    <edge id="0/0to1/0" from="0/0" to="1/0" priority="-1">
        <lane id="0/0to1/0_0" index="0" speed="13.90" length="300.00" shape="3.25,-1.65 295.25,-1.65"/>
    </edge>
    <edge id="0/1to0/0" from="0/1" to="0/0" priority="-1">
        <lane id="0/1to0/0_0" index="0" speed="13.90" length="300.00" shape="-1.65,295.25 -1.65,3.25"/>
    </edge>
    <edge id="0/1to0/2" from="0/1" to="0/2" priority="-1">
        <lane id="0/1to0/2_0" index="0" speed="13.90" length="300.00" shape="1.65,304.75 1.65,596.75"/>
    </edge>
    <edge id="0/1to1/1" from="0/1" to="1/1" priority="-1">
        <lane id="0/1to1/1_0" index="0" speed="13.90" length="300.00" shape="4.75,298.35 295.25,298.35"/>
    </edge>
    <edge id="0/2to0/1" from="0/2" to="0/1" priority="-1">
        <lane id="0/2to0/1_0" index="0" speed="13.90" length="300.00" shape="-1.65,596.75 -1.65,304.75"/>
    </edge>
    <edge id="0/2to1/2" from="0/2" to="1/2" priority="-1">
        <lane id="0/2to1/2_0" index="0" speed="13.90" length="300.00" shape="3.25,598.35 295.25,598.35"/>
    </edge>
    <edge id="1/0to0/0" from="1/0" to="0/0" priority="-1">
        <lane id="1/0to0/0_0" index="0" speed="13.90" length="300.00" shape="295.25,1.65 3.25,1.65"/>
    </edge>
    <edge id="1/0to1/1" from="1/0" to="1/1" priority="-1">
        <lane id="1/0to1/1_0" index="0" speed="13.90" length="300.00" shape="301.65,4.75 301.65,295.25"/>
    </edge>
    <edge id="1/0to2/0" from="1/0" to="2/0" priority="-1">
        <lane id="1/0to2/0_0" index="0" speed="13.90" length="300.00" shape="304.75,-1.65 596.75,-1.65"/>
    </edge>
    <edge id="1/1to0/1" from="1/1" to="0/1" priority="-1">
        <lane id="1/1to0/1_0" index="0" speed="13.90" length="300.00" shape="295.25,301.65 4.75,301.65"/>
    </edge>
    <edge id="1/1to1/0" from="1/1" to="1/0" priority="-1">
        <lane id="1/1to1/0_0" index="0" speed="13.90" length="300.00" shape="298.35,295.25 298.35,4.75"/>
    </edge>
    <edge id="1/1to1/2" from="1/1" to="1/2" priority="-1">
        <lane id="1/1to1/2_0" index="0" speed="13.90" length="300.00" shape="301.65,304.75 301.65,595.25"/>
    </edge>
    <edge id="1/1to2/1" from="1/1" to="2/1" priority="-1">
        <lane id="1/1to2/1_0" index="0" speed="13.90" length="300.00" shape="304.75,298.35 595.25,298.35"/>
    </edge>
    <edge id="1/2to0/2" from="1/2" to="0/2" priority="-1">
        <lane id="1/2to0/2_0" index="0" speed="13.90" length="300.00" shape="295.25,601.65 3.25,601.65"/>
    </edge>
    <edge id="1/2to1/1" from="1/2" to="1/1" priority="-1">
        <lane id="1/2to1/1_0" index="0" speed="13.90" length="300.00" shape="298.35,595.25 298.35,304.75"/>
    </edge>
    <edge id="1/2to2/2" from="1/2" to="2/2" priority="-1">
        <lane id="1/2to2/2_0" index="0" speed="13.90" length="300.00" shape="304.75,598.35 596.75,598.35"/>
    </edge>
    <edge id="2/0to1/0" from="2/0" to="1/0" priority="-1">
        <lane id="2/0to1/0_0" index="0" speed="13.90" length="300.00" shape="596.75,1.65 304.75,1.65"/>
    </edge>
    <edge id="2/0to2/1" from="2/0" to="2/1" priority="-1">
        <lane id="2/0to2/1_0" index="0" speed="13.90" length="300.00" shape="601.65,3.25 601.65,295.25"/>
    </edge>
    <edge id="2/1to1/1" from="2/1" to="1/1" priority="-1">
        <lane id="2/1to1/1_0" index="0" speed="13.90" length="300.00" shape="595.25,301.65 304.75,301.65"/>
    </edge>
    <edge id="2/1to2/0" from="2/1" to="2/0" priority="-1">
        <lane id="2/1to2/0_0" index="0" speed="13.90" length="300.00" shape="598.35,295.25 598.35,3.25"/>
    </edge>
    <edge id="2/1to2/2" from="2/1" to="2/2" priority="-1">
        <lane id="2/1to2/2_0" index="0" speed="13.90" length="300.00" shape="601.65,304.75 601.65,596.75"/>
    </edge>
    <edge id="2/2to1/2" from="2/2" to="1/2" priority="-1">
        <lane id="2/2to1/2_0" index="0" speed="13.90" length="300.00" shape="596.75,601.65 304.75,601.65"/>
    </edge>
    <edge id="2/2to2/1" from="2/2" to="2/1" priority="-1">
        <lane id="2/2to2/1_0" index="0" speed="13.90" length="300.00" shape="598.35,596.75 598.35,304.75"/>
    </edge>

    <junction id="0/0" type="priority" x="0.00" y="0.00" incLanes="0/1to0/0_0 1/0to0/0_0" intLanes="" shape="-3.25,3.25 3.25,3.25 3.25,-3.25">
        <request index="0" response="0000" foes="1000"/>
        <request index="1" response="0100" foes="0100"/>
        <request index="2" response="0000" foes="0010"/>
        <request index="3" response="0001" foes="0001"/>
    </junction>
    <junction id="0/1" type="priority" x="0.00" y="300.00" incLanes="0/2to0/1_0 1/1to0/1_0 0/0to0/1_0" intLanes="" shape="-3.25,304.75 3.25,304.75 4.75,303.25 4.75,296.75 3.25,295.25 -3.25,295.25">
        <request index="0" response="000000000" foes="100010000"/>
        <request index="1" response="011000000" foes="011110000"/>
        <request index="2" response="010001000" foes="010001000"/>
        <request index="3" response="010000000" foes="010000100"/>
        <request index="4" response="010000011" foes="110000011"/>
        <request index="5" response="001000010" foes="001000010"/>
        <request index="6" response="000000000" foes="000100010"/>
        <request index="7" response="000000000" foes="000011110"/>
        <request index="8" response="000010001" foes="000010001"/>
    </junction>
    <junction id="0/2" type="priority" x="0.00" y="600.00" incLanes="1/2to0/2_0 0/1to0/2_0" intLanes="" shape="3.25,603.25 3.25,596.75 -3.25,596.75">
        <request index="0" response="0000" foes="1000"/>
        <request index="1" response="0100" foes="0100"/>
        <request index="2" response="0000" foes="0010"/>
        <request index="3" response="0001" foes="0001"/>
    </junction>
    <junction id="1/0" type="priority" x="300.00" y="0.00" incLanes="1/1to1/0_0 2/0to1/0_0 0/0to1/0_0" intLanes="" shape="296.75,4.75 303.25,4.75 304.75,3.25 304.75,-3.25 295.25,-3.25 295.25,3.25">
        <request index="0" response="000010000" foes="100010000"/>
        <request index="1" response="011010000" foes="011110000"/>
        <request index="2" response="010001000" foes="010001000"/>
        <request index="3" response="000000000" foes="010000100"/>
        <request index="4" response="000000000" foes="110000011"/>
        <request index="5" response="001000010" foes="001000010"/>
        <request index="6" response="000000000" foes="000100010"/>
        <request index="7" response="000011000" foes="000011110"/>
        <request index="8" response="000010001" foes="000010001"/>
    </junction>
    <junction id="1/1" type="priority" x="300.00" y="300.00" incLanes="1/2to1/1_0 2/1to1/1_0 1/0to1/1_0 0/1to1/1_0" intLanes="" shape="296.75,304.75 303.25,304.75 304.75,303.25 304.75,296.75 303.25,295.25 296.75,295.25 295.25,296.75 295.25,303.25">
        <request index="0" response="0000000000000000" foes="1000010000100000"/>
        <request index="1" response="0000000000000000" foes="0111110001100000"/>
        <request index="2" response="0000001100000000" foes="0110001111100000"/>
        <request index="3" response="0100001000010000" foes="0100001000010000"/>
        <request index="4" response="0000001000000000" foes="0100001000001000"/>
        <request index="5" response="0000011000000111" foes="1100011000000111"/>
        <request index="6" response="0011011000000110" foes="0011111000000110"/>
        <request index="7" response="0010000100000100" foes="0010000100000100"/>
        <request index="8" response="0000000000000000" foes="0010000010000100"/>
        <request index="9" response="0000000000000000" foes="0110000001111100"/>
        <request index="10" response="0000000000000011" foes="1110000001100011"/>
        <request index="11" response="0001000001000010" foes="0001000001000010"/>
        <request index="12" response="0000000000000010" foes="0000100001000010"/>
        <request index="13" response="0000011100000110" foes="0000011111000110"/>
        <request index="14" response="0000011000110110" foes="0000011000111110"/>
        <request index="15" response="0000010000100001" foes="0000010000100001"/>
    </junction>
    <junction id="1/2" type="priority" x="300.00" y="600.00" incLanes="2/2to1/2_0 1/1to1/2_0 0/2to1/2_0" intLanes="" shape="304.75,603.25 304.75,596.75 303.25,595.25 296.75,595.25 295.25,596.75 295.25,603.25">
        <request index="0" response="000000000" foes="100010000"/>
        <request index="1" response="011000000" foes="011110000"/>
        <request index="2" response="010001000" foes="010001000"/>
        <request index="3" response="010000000" foes="010000100"/>
        <request index="4" response="010000011" foes="110000011"/>
        <request index="5" response="001000010" foes="001000010"/>
        <request index="6" response="000000000" foes="000100010"/>
        <request index="7" response="000000000" foes="000011110"/>
        <request index="8" response="000010001" foes="000010001"/>
    </junction>
    <junction id="2/0" type="priority" x="600.00" y="0.00" incLanes="2/1to2/0_0 1/0to2/0_0" intLanes="" shape="596.75,3.25 603.25,3.25 596.75,-3.25 596.75,3.25">
        <request index="0" response="0000" foes="1000"/>
        <request index="1" response="0100" foes="0100"/>
        <request index="2" response="0000" foes="0010"/>
        <request index="3" response="0001" foes="0001"/>
    </junction>
    <junction id="2/1" type="priority" x="600.00" y="300.00" incLanes="2/2to2/1_0 2/0to2/1_0 1/1to2/1_0" intLanes="" shape="596.75,304.75 603.25,304.75 603.25,295.25 596.75,295.25 595.25,296.75 595.25,303.25">
        <request index="0" response="000000000" foes="100010000"/>
        <request index="1" response="000000000" foes="011110000"/>
        <request index="2" response="010001000" foes="010001000"/>
        <request index="3" response="000000000" foes="010000100"/>
        <request index="4" response="000000011" foes="110000011"/>
        <request index="5" response="001000010" foes="001000010"/>
        <request index="6" response="000000010" foes="000100010"/>
        <request index="7" response="000011010" foes="000011110"/>
        <request index="8" response="000010001" foes="000010001"/>
    </junction>
    <junction id="2/2" type="priority" x="600.00" y="600.00" incLanes="2/1to2/2_0 1/2to2/2_0" intLanes="" shape="603.25,596.75 596.75,596.75 596.75,603.25">
        <request index="0" response="0000" foes="1000"/>
        <request index="1" response="0100" foes="0100"/>
        <request index="2" response="0000" foes="0010"/>
        <request index="3" response="0001" foes="0001"/>
    </junction>

    <connection from="0/0to0/1" to="0/1to1/1" fromLane="0" toLane="0" dir="r" state="M"/>
    <connection from="0/0to0/1" to="0/1to0/2" fromLane="0" toLane="0" dir="s" state="M"/>
    <connection from="0/0to0/1" to="0/1to0/0" fromLane="0" toLane="0" dir="t" state="m"/>
    <connection from="0/0to1/0" to="1/0to2/0" fromLane="0" toLane="0" dir="s" state="M"/>
    <connection from="0/0to1/0" to="1/0to1/1" fromLane="0" toLane="0" dir="l" state="m"/>
    <connection from="0/0to1/0" to="1/0to0/0" fromLane="0" toLane="0" dir="t" state="m"/>
    <connection from="0/1to0/0" to="0/0to1/0" fromLane="0" toLane="0" dir="l" state="M"/>
    <connection from="0/1to0/0" to="0/0to0/1" fromLane="0" toLane="0" dir="t" state="m"/>
    <connection from="0/1to0/2" to="0/2to1/2" fromLane="0" toLane="0" dir="r" state="M"/>
    <connection from="0/1to0/2" to="0/2to0/1" fromLane="0" toLane="0" dir="t" state="m"/>
    <connection from="0/1to1/1" to="1/1to1/0" fromLane="0" toLane="0" dir="r" state="m"/>
    <connection from="0/1to1/1" to="1/1to2/1" fromLane="0" toLane="0" dir="s" state="m"/>
    <connection from="0/1to1/1" to="1/1to1/2" fromLane="0" toLane="0" dir="l" state="m"/>
    <connection from="0/1to1/1" to="1/1to0/1" fromLane="0" toLane="0" dir="t" state="m"/>
    <connection from="0/2to0/1" to="0/1to0/0" fromLane="0" toLane="0" dir="s" state="M"/>
    <connection from="0/2to0/1" to="0/1to1/1" fromLane="0" toLane="0" dir="l" state="m"/>
    <connection from="0/2to0/1" to="0/1to0/2" fromLane="0" toLane="0" dir="t" state="m"/>
    <connection from="0/2to1/2" to="1/2to1/1" fromLane="0" toLane="0" dir="r" state="M"/>
    <connection from="0/2to1/2" to="1/2to2/2" fromLane="0" toLane="0" dir="s" state="M"/>
    <connection from="0/2to1/2" to="1/2to0/2" fromLane="0" toLane="0" dir="t" state="m"/>
    <connection from="1/0to0/0" to="0/0to0/1" fromLane="0" toLane="0" dir="r" state="M"/>
    <connection from="1/0to0/0" to="0/0to1/0" fromLane="0" toLane="0" dir="t" state="m"/>
    <connection from="1/0to1/1" to="1/1to2/1" fromLane="0" toLane="0" dir="r" state="M"/>
    <connection from="1/0to1/1" to="1/1to1/2" fromLane="0" toLane="0" dir="s" state="M"/>
    <connection from="1/0to1/1" to="1/1to0/1" fromLane="0" toLane="0" dir="l" state="m"/>
    <connection from="1/0to1/1" to="1/1to1/0" fromLane="0" toLane="0" dir="t" state="m"/>
    <connection from="1/0to2/0" to="2/0to2/1" fromLane="0" toLane="0" dir="l" state="M"/>
    <connection from="1/0to2/0" to="2/0to1/0" fromLane="0" toLane="0" dir="t" state="m"/>
    <connection from="1/1to0/1" to="0/1to0/2" fromLane="0" toLane="0" dir="r" state="m"/>
    <connection from="1/1to0/1" to="0/1to0/0" fromLane="0" toLane="0" dir="l" state="m"/>
    <connection from="1/1to0/1" to="0/1to1/1" fromLane="0" toLane="0" dir="t" state="m"/>
    <connection from="1/1to1/0" to="1/0to0/0" fromLane="0" toLane="0" dir="r" state="m"/>
    <connection from="1/1to1/0" to="1/0to2/0" fromLane="0" toLane="0" dir="l" state="m"/>
    <connection from="1/1to1/0" to="1/0to1/1" fromLane="0" toLane="0" dir="t" state="m"/>
    <connection from="1/1to1/2" to="1/2to2/2" fromLane="0" toLane="0" dir="r" state="m"/>
    <connection from="1/1to1/2" to="1/2to0/2" fromLane="0" toLane="0" dir="l" state="m"/>
    <connection from="1/1to1/2" to="1/2to1/1" fromLane="0" toLane="0" dir="t" state="m"/>
    <connection from="1/1to2/1" to="2/1to2/0" fromLane="0" toLane="0" dir="r" state="m"/>
    <connection from="1/1to2/1" to="2/1to2/2" fromLane="0" toLane="0" dir="l" state="m"/>
    <connection from="1/1to2/1" to="2/1to1/1" fromLane="0" toLane="0" dir="t" state="m"/>
    <connection from="1/2to0/2" to="0/2to0/1" fromLane="0" toLane="0" dir="l" state="M"/>
    <connection from="1/2to0/2" to="0/2to1/2" fromLane="0" toLane="0" dir="t" state="m"/>
    <connection from="1/2to1/1" to="1/1to0/1" fromLane="0" toLane="0" dir="r" state="M"/>
    <connection from="1/2to1/1" to="1/1to1/0" fromLane="0" toLane="0" dir="s" state="M"/>
    <connection from="1/2to1/1" to="1/1to2/1" fromLane="0" toLane="0" dir="l" state="m"/>
    <connection from="1/2to1/1" to="1/1to1/2" fromLane="0" toLane="0" dir="t" state="m"/>
    <connection from="1/2to2/2" to="2/2to2/1" fromLane="0" toLane="0" dir="r" state="M"/>
    <connection from="1/2to2/2" to="2/2to1/2" fromLane="0" toLane="0" dir="t" state="m"/>
    <connection from="2/0to1/0" to="1/0to1/1" fromLane="0" toLane="0" dir="r" state="M"/>
    <connection from="2/0to1/0" to="1/0to0/0" fromLane="0" toLane="0" dir="s" state="M"/>
    <connection from="2/0to1/0" to="1/0to2/0" fromLane="0" toLane="0" dir="t" state="m"/>
    <connection from="2/0to2/1" to="2/1to2/2" fromLane="0" toLane="0" dir="s" state="M"/>
    <connection from="2/0to2/1" to="2/1to1/1" fromLane="0" toLane="0" dir="l" state="m"/>
    <connection from="2/0to2/1" to="2/1to2/0" fromLane="0" toLane="0" dir="t" state="m"/>
    <connection from="2/1to1/1" to="1/1to1/2" fromLane="0" toLane="0" dir="r" state="m"/>
    <connection from="2/1to1/1" to="1/1to0/1" fromLane="0" toLane="0" dir="s" state="m"/>
    <connection from="2/1to1/1" to="1/1to1/0" fromLane="0" toLane="0" dir="l" state="m"/>
    <connection from="2/1to1/1" to="1/1to2/1" fromLane="0" toLane="0" dir="t" state="m"/>
    <connection from="2/1to2/0" to="2/0to1/0" fromLane="0" toLane="0" dir="r" state="M"/>
    <connection from="2/1to2/0" to="2/0to2/1" fromLane="0" toLane="0" dir="t" state="m"/>
    <connection from="2/1to2/2" to="2/2to1/2" fromLane="0" toLane="0" dir="l" state="M"/>
    <connection from="2/1to2/2" to="2/2to2/1" fromLane="0" toLane="0" dir="t" state="m"/>
    <connection from="2/2to1/2" to="1/2to0/2" fromLane="0" toLane="0" dir="s" state="M"/>
    <connection from="2/2to1/2" to="1/2to1/1" fromLane="0" toLane="0" dir="l" state="m"/>
    <connection from="2/2to1/2" to="1/2to2/2" fromLane="0" toLane="0" dir="t" state="m"/>
    <connection from="2/2to2/1" to="2/1to1/1" fromLane="0" toLane="0" dir="r" state="M"/>
    <connection from="2/2to2/1" to="2/1to2/0" fromLane="0" toLane="0" dir="s" state="M"/>
    <connection from="2/2to2/1" to="2/1to2/2" fromLane="0" toLane="0" dir="t" state="m"/>

</net>
