<?xml version="1.0" encoding="UTF-8"?>

<edges>

    <edge id="CE" from="C" to="E" priority="2" numLanes="5" speed="30">
        <lane index="0" allow="pedestrian" width="3"/>
        <lane index="1" disallow="all" width="1.50"/>
        <lane index="2" allow="bicycle" width="1.00"/>
        <lane index="3" disallow="bicycle pedestrian"/>
        <lane index="4" disallow="bicycle pedestrian"/>
    </edge>
    <edge id="CN" from="C" to="N" priority="2" numLanes="5" speed="30">
        <lane index="0" allow="pedestrian" width="3.00"/>
        <lane index="1" disallow="all" width="1.50"/>
        <lane index="2" allow="bicycle" width="1.00"/>
        <lane index="3" disallow="bicycle pedestrian"/>
        <lane index="4" disallow="bicycle pedestrian"/>
    </edge>
    <edge id="CS" from="C" to="S" priority="2" numLanes="5" speed="30">
        <lane index="0" allow="pedestrian" width="3.00"/>
        <lane index="1" disallow="all" width="1.50"/>
        <lane index="2" allow="bicycle" width="1.00"/>
        <lane index="3" disallow="bicycle pedestrian"/>
        <lane index="4" disallow="bicycle pedestrian"/>
    </edge>
    <edge id="CW" from="C" to="W" priority="2" numLanes="5" speed="30">
        <lane index="0" allow="pedestrian" width="3.00"/>
        <lane index="1" disallow="all" width="1.50"/>
        <lane index="2" allow="bicycle" width="1.00"/>
        <lane index="3" disallow="bicycle pedestrian"/>
        <lane index="4" disallow="bicycle pedestrian"/>
    </edge>
    <edge id="EC" from="E" to="C" priority="2" numLanes="5" speed="30">
        <lane index="0" allow="pedestrian" width="3.00"/>
        <lane index="1" disallow="all" width="1.50"/>
        <lane index="2" allow="bicycle" width="1.00"/>
        <lane index="3" disallow="bicycle pedestrian"/>
        <lane index="4" disallow="bicycle pedestrian"/>
    </edge>
    <edge id="NC" from="N" to="C" priority="2" numLanes="5" speed="30">
        <lane index="0" allow="pedestrian" width="3.00"/>
        <lane index="1" disallow="all" width="1.50"/>
        <lane index="2" allow="bicycle" width="1.00"/>
        <lane index="3" disallow="bicycle pedestrian"/>
        <lane index="4" disallow="bicycle pedestrian"/>
    </edge>
    <edge id="SC" from="S" to="C" priority="2" numLanes="5" speed="30">
        <lane index="0" allow="pedestrian" width="3.00"/>
        <lane index="1" disallow="all" width="1.50"/>
        <lane index="2" allow="bicycle" width="1.00"/>
        <lane index="3" disallow="bicycle pedestrian"/>
        <lane index="4" disallow="bicycle pedestrian"/>
    </edge>
    <edge id="WC" from="W" to="C" priority="2" numLanes="5" speed="30">
        <lane index="0" allow="pedestrian" width="3.00"/>
        <lane index="1" disallow="all" width="1.50"/>
        <lane index="2" allow="bicycle" width="1.00"/>
        <lane index="3" disallow="bicycle pedestrian"/>
        <lane index="4" disallow="bicycle pedestrian"/>
    </edge>

</edges>
